*SIMULATION OVERVIEW FILE

*DSSAT Cropping System Model Ver. 4.7.5.039 -develop  JUN 16, 2021 15:09:12

*RUN   1        : RAINFED HIGH NITROGEN     MZIXM047 TEST1801    1
 MODEL          : MZIXM047 - Maize
 EXPERIMENT     : TEST1801 MZ ocation, TE
 DATA PATH      :
 TREATMENT  1   : RAINFED HIGH NITROGEN     MZIXM047


 CROP           : Maize            CULTIVAR : 2500-2600 GDD    ECOTYPE :IB0001
 STARTING DATE  : JAN  1 2018
 PLANTING DATE  : APR 10 2018      PLANTS/m2 :     9.5    ROW SPACING :  61.cm
 HARVEST DATE   : OCT 27 2018
 WEATHER        : TEST   2018
 SOIL           : IB00000007     TEXTURE : SL    - DEFAULT - DEEP SANDY LOAM
 SOIL INITIAL C : DEPTH:210cm EXTR. H2O:229.2mm  NO3:  0.0kg/ha  NH4:  0.0kg/ha
 WATER BALANCE  : RAINFED
 IRRIGATION     : NOT IRRIGATED
 NITROGEN BAL.  : NOT SIMULATED ; NO N-STRESS
 N-FERTILIZER   :
 RESIDUE/MANURE :
 ENVIRONM. OPT. : DAYL=    0.00  SRAD=    0.00  TMAX=    0.00  TMIN=    0.00
                  RAIN=    0.00  CO2 =    0.00  DEW =    0.00  WIND=    0.00
 SIMULATION OPT : WATER   :Y  NITROGEN:N  N-FIX:N  PHOSPH :N  PESTS  :N
                  PHOTO   :R  ET      :R  INFIL:S  HYDROL :R  SOM    :G
                  CO2 407ppm  NSWIT   :1  EVAP :S  SOIL   :2  STEMP  :D
 MANAGEMENT OPT : PLANTING:R  IRRIG   :N  FERT :N  RESIDUE:N  HARVEST:R
                  WEATHER :M  TILLAGE :Y

*SUMMARY OF SOIL AND GENETIC INPUT PARAMETERS

   SOIL LOWER UPPER   SAT  EXTR  INIT   ROOT   BULK     pH    NO3    NH4    ORG
  DEPTH LIMIT LIMIT    SW    SW    SW   DIST   DENS                          C
   cm   cm3/cm3    cm3/cm3    cm3/cm3         g/cm3         ugN/g  ugN/g     %
-------------------------------------------------------------------------------
  0-  5 0.052 0.176 0.359 0.124 0.086   1.00   1.61   6.50   0.10   0.50   0.70
  5- 15 0.052 0.176 0.359 0.124 0.086   1.00   1.61   6.50   0.10   0.50   0.70
 15- 30 0.052 0.176 0.359 0.124 0.086   0.64   1.61   6.50   0.10   0.50   0.66
 30- 45 0.073 0.192 0.360 0.119 0.086   0.47   1.61   6.50   0.10   0.50   0.58
 45- 60 0.073 0.192 0.360 0.119 0.086   0.35   1.61   6.50   0.10   0.50   0.58
 60- 90 0.128 0.232 0.361 0.104 0.076   0.22   1.61   6.50   0.10   0.60   0.43
 90-120 0.143 0.243 0.359 0.100 0.076   0.12   1.62   6.50   0.10   0.50   0.26
120-150 0.138 0.243 0.360 0.105 0.130   0.07   1.62   6.50   0.10   0.50   0.12
150-180 0.138 0.244 0.361 0.106 0.258   0.04   1.62   6.50   0.10   0.50   0.04
180-210 0.138 0.244 0.361 0.106 0.244   0.02   1.62   6.50   0.00   0.00   0.01

TOT-210  24.3  47.2  75.6  22.9  28.7  <--cm   -  kg/ha-->    0.0    0.0      0
SOIL ALBEDO    : 0.13      EVAPORATION LIMIT : 6.00         MIN. FACTOR  : 1.00
RUNOFF CURVE # :68.00      DRAINAGE RATE     : 0.50         FERT. FACTOR : 1.00

 Maize      CULTIVAR :PC0001-2500-2600 GDD      ECOTYPE :IB0001
 P1     : 160.00  P2     : 0.7500  P5     : 780.00  AX     : 658.4
 G2     : 750.00  G3     :  8.500  PHINT  : 49.000  LX     : 733.3


*SIMULATED CROP AND SOIL STATUS AT MAIN DEVELOPMENT STAGES

 RUN NO.     1     RAINFED HIGH NITROGEN   

        CROP GROWTH     BIOMASS         LEAF   CROP N     STRESS      STRESS                                           
   DATE  AGE STAGE        kg/ha    LAI   NUM  kg/ha  %   H2O  Nitr Phos1 Phos2  RSTG                                   
 ------  --- ----------   -----  -----  ----  ---  ---  ----  ----  ----  ----  ----                                   
  1 JAN    0 Start Sim        0   0.00   0.0    0  0.0  0.00  0.00  0.00  0.00     7
 10 APR    0 Sowing           0   0.00   0.0    0  0.0  0.00  0.00  0.00  0.00     8
 11 APR    1 Germinate        0   0.00   0.0    0  0.0  0.00  0.00  0.00  0.00     9
  7 MAY   27 Emergence       47   0.00   0.9    0  0.0  0.00  0.00  0.00  0.00     1
 25 MAY   45 End Juveni     162   0.12   4.4    0  0.0  0.00  0.00  0.00  0.00     2
 30 MAY   50 Floral Ini     423   0.41   6.4    0  0.0  0.00  0.00  0.00  0.00     3
  5 JUL   86 75% Silkin   11865   4.00  15.2    0  0.0  0.00  0.00  0.00  0.00     4
 16 JUL   97 Beg Gr Fil   16359   3.94  15.2    0  0.0  0.09  0.00  0.00  0.00     5
 28 AUG  140 End Gr Fil   23181   1.46  15.2    0  0.0  0.32  0.00  0.00  0.00     6
  1 SEP  144 Maturity     23325   1.04  15.2    0  0.0  0.00  0.00  0.00  0.00    10
 27 OCT  200 Harvest      23325   1.04  15.2    0  0.0  0.00  0.00  0.00  0.00    10


*MAIN GROWTH AND DEVELOPMENT VARIABLES

@     VARIABLE                                         SIMULATED     MEASURED
      --------                                         ---------     --------
      Anthesis day (dap)                                      86          -99
      Physiological maturity day (dap)                       144          -99
      Yield at harvest maturity (kg [dm]/ha)               11206          -99
      Number at maturity (no/m2)                            5493          -99
      Unit wt at maturity (g [dm]/unit)                   0.2040          -99
      Number at maturity (no/unit)                         585.6          -99
      Tops weight at maturity (kg [dm]/ha)                 23325          -99
      By-product produced (stalk) at maturity (kg[dm]/ha   12177          -99
      Leaf area index, maximum                              4.08          -99
      Harvest index at maturity                            0.480          -99
      Grain N at maturity (kg/ha)                              0          -99
      Tops N at maturity (kg/ha)                               0          -99
      Stem N at maturity (kg/ha)                               0          -99
      Grain N at maturity (%)                                0.0          -99
      Tops weight at anthesis (kg [dm]/ha)                 11480          -99
      Tops N at anthesis (kg/ha)                               0          -99
      Leaf number per stem at maturity                     15.17          -99
      Emergence day (dap)                                     27          -99


*ENVIRONMENTAL AND STRESS FACTORS

 |-----Development Phase------|--------------------------------------Environment--------------------------------------|-----------------Stress-----------------|
                              |---------------Average--------------|-----Cumulative-----|--------Count of days--------|          (0=Min, 1=Max Stress)         |
                         Time  Temp  Temp  Temp Solar Photop                Evapo    Pot TMIN TMIN TMAX TMAX TMAX RAIN|----Water----|---Nitrogen--|-Phosphorus-|
                         Span   Max   Min  Mean   Rad  [day]    CO2   Rain  Trans     ET   <    <    >    >    >    >   Photo         Photo         Photo
                         days    øC    øC    øC MJ/m2     hr    ppm     mm     mm     mm  0øC  2øC 30øC 32øC 34øC  0mm  synth Growth  synth Growth  synth Growth
----------------------------------------------------------------------------------------------------------------------------------------------------------------
 Emergence-End Juvenile    18  20.9  10.1  15.5  25.6  12.18  408.1  157.8   67.9  106.8    0    0    0    0    0   10  0.000  0.000  0.000  0.000  0.000  0.000
 End Juvenil-Floral Init    5  34.2  18.3  26.3  31.6  12.21  408.2   25.4   30.3   44.8    0    0    5    4    3    1  0.000  0.000  0.000  0.000  0.000  0.000
 Floral Init-End Lf Grow   36  27.8  17.3  22.5  28.6  12.23  408.3  175.1  231.2  242.6    0    0    8    7    1   17  0.000  0.000  0.000  0.000  0.000  0.000
 End Lf Grth-Beg Grn Fil   11  29.1  18.5  23.8  29.8  12.22  408.4   72.4   71.5   76.0    0    0    3    2    0    4  0.048  0.091  0.000  0.000  0.000  0.000
 Grain Filling Phase       43  27.0  15.4  21.2  26.6  12.16  408.7  113.1  171.2  254.5    0    0    4    0    0   12  0.282  0.315  0.000  0.000  0.000  0.000
   
 Planting to Harvest      200  22.2  10.9  16.6  23.6  12.12  408.6  973.1  829.7 1025.0   26   35   24   13    4   70  0.063  0.073  0.000  0.000  0.000  0.000
----------------------------------------------------------------------------------------------------------------------------------------------------------------


*Resource Productivity
 Growing season length: 200 days 

 Precipitation during growing season       973.1 mm[rain]
   Dry Matter Productivity                  2.40 kg[DM]/m3[rain]          =   24.0 kg[DM]/ha per mm[rain]
   Yield Productivity                       1.15 kg[grain yield]/m3[rain] =   11.5 kg[yield]/ha per mm[rain]

 Evapotranspiration during growing season  829.7 mm[ET]
   Dry Matter Productivity                  2.81 kg[DM]/m3[ET]            =   28.1 kg[DM]/ha per mm[ET]
   Yield Productivity                       1.35 kg[grain yield]/m3[ET]   =   13.5 kg[yield]/ha per mm[ET]

 Transpiration during growing season       498.2 mm[EP]
   Dry Matter Productivity                  4.68 kg[DM]/m3[EP]            =   46.8 kg[DM]/ha per mm[EP]
   Yield Productivity                       2.25 kg[grain yield]/m3[EP]   =   22.5 kg[yield]/ha per mm[EP]

--------------------------------------------------------------------------------------------------------------

                     Maize YIELD :    11206 kg/ha    [Dry weight] 

**************************************************************************************************************
