*WATER BALANCE OUTPUT FILE

*DSSAT Cropping System Model Ver. 4.7.5.039 -develop  JUN 16, 2021 15:09:12

!     WATER BALANCE PARAMETERS
!     ========================                 --mm--

!     Soil H20 (start) on Year/day 2018/001    324.90
!     Soil H20 (final) on Year/day 2018/300    451.41
!     Effective Irrigation                       0.00
!     Precipitation                           1186.10
!     Water added with new mulch                 0.00
!     Drainage                                  78.18
!     Tiledrain flow                             0.00
!     Runoff                                    76.07
!     Mulch evaporation                          0.00
!     Soil Evaporation                         407.12
!     Transpiration                            498.23
!     Potential ET                            1107.49

!     Initial mulch water content                0.00
!     Final mulch water content                  0.00

!     Final Balance                            -0.005

