*WARNING DETAIL FILE

******************************************************************************

*DSSAT Cropping System Model Ver. 4.7.5.039 -develop  JUN 16, 2021 15:09:12
