*WATER BALANCE OUTPUT FILE

*DSSAT Cropping System Model Ver. 4.7.5.039 -develop  NOV 04, 2021 14:03:48

!     WATER BALANCE PARAMETERS
!     ========================                 --mm--

!     Soil H20 (start) on Year/day 2020/001    324.90
!     Soil H20 (final) on Year/day 2020/001    322.43
!     Effective Irrigation                       0.00
!     Precipitation                              0.00
!     Water added with new mulch                 0.00
!     Drainage                                   2.10
!     Tiledrain flow                             0.00
!     Runoff                                     0.00
!     Mulch evaporation                          0.00
!     Soil Evaporation                           0.37
!     Transpiration                              0.00
!     Potential ET                               0.40

!     Initial mulch water content                0.00
!     Final mulch water content                  0.00

!     Final Balance                             0.000


*DSSAT Cropping System Model Ver. 4.7.5.039 -develop  NOV 04, 2021 14:04:10

!     WATER BALANCE PARAMETERS
!     ========================                 --mm--

!     Soil H20 (start) on Year/day 2020/001    324.90
!     Soil H20 (final) on Year/day 2020/001    322.43
!     Effective Irrigation                       0.00
!     Precipitation                              0.00
!     Water added with new mulch                 0.00
!     Drainage                                   2.10
!     Tiledrain flow                             0.00
!     Runoff                                     0.00
!     Mulch evaporation                          0.00
!     Soil Evaporation                           0.37
!     Transpiration                              0.00
!     Potential ET                               0.40

!     Initial mulch water content                0.00
!     Final mulch water content                  0.00

!     Final Balance                             0.000

