*WARNING DETAIL FILE

******************************************************************************

*DSSAT Cropping System Model Ver. 4.7.5.039 -develop  NOV 04, 2021 14:03:48

******************************************************************************

*DSSAT Cropping System Model Ver. 4.7.5.039 -develop  NOV 04, 2021 14:04:10
