
*DSSAT Cropping System Model Ver. 4.7.5.042 -develop  JAN 20, 2022 15:55:43
!                                                                                                                                                                                         Soil evaporation (mm/d) by soil depth (cm):
!                                                                                                                                                                                         0-5    5-15   15-30   30-45   45-60   60-80  80-100 100-150 150-200
@YEAR DOY   DAS   SRAA  TMAXA  TMINA    REFA    EOAA    EOPA    EOSA    KCAA    KCBA    KEAA    ETAA    EPAA    ESAA    EFAA    EMAA    EOAC    ETAC    EPAC    ESAC    EFAC    EMAC    RU1D    RU2D    RU3D    RU4D    RU5D    RU6D    RU7D    RU8D    RU9D    ES1D    ES2D    ES3D    ES4D    ES5D    ES6D    ES7D    ES8D    ES9D   TRWUD
 1982 001     1   5.90  24.40  15.60 -99.000   1.452   0.000   1.452 -99.000 -99.000 -99.000   0.947   0.000   0.947   0.000   0.000    1.45    0.95    0.00    0.95    0.00    0.00   0.824   0.082   0.021   0.008   0.004   0.003   0.002   0.002   0.002   0.000
 1982 002     2   7.00  22.20  15.00 -99.000   1.741   0.000   1.741 -99.000 -99.000 -99.000   1.741   0.000   1.741   0.000   0.000    3.19    2.69    0.00    2.69    0.00    0.00   0.576   0.268   0.156   0.109   0.087   0.094   0.079   0.143   0.229   0.000
 1982 003     3   9.00  27.80  17.20 -99.000   2.420   0.000   2.420 -99.000 -99.000 -99.000   2.420   0.000   2.420   0.000   0.000    5.61    5.11    0.00    5.11    0.00    0.00   0.760   0.394   0.220   0.154   0.122   0.132   0.111   0.202   0.324   0.000
 1982 004     4   3.10  26.10  15.00 -99.000   0.801   0.000   0.801 -99.000 -99.000 -99.000   0.801   0.000   0.801   0.000   0.000    6.41    5.91    0.00    5.91    0.00    0.00   0.262   0.142   0.068   0.048   0.038   0.042   0.035   0.063   0.102   0.000
 1982 005     5  12.90  17.20   2.20 -99.000   2.674   0.000   2.674 -99.000 -99.000 -99.000   2.674   0.000   2.674   0.000   0.000    9.09    8.58    0.00    8.58    0.00    0.00   0.851   0.541   0.221   0.156   0.124   0.134   0.113   0.205   0.330   0.000
 1982 006     6  11.40  25.00   4.40 -99.000   2.669   0.000   2.669 -99.000 -99.000 -99.000   2.669   0.000   2.669   0.000   0.000   11.76   11.25    0.00   11.25    0.00    0.00   0.796   0.566   0.224   0.158   0.126   0.137   0.115   0.210   0.337   0.000
 1982 007     7   8.50  26.70  11.70 -99.000   2.153   0.000   2.153 -99.000 -99.000 -99.000   1.288   0.000   1.288   0.000   0.000   13.91   12.54    0.00   12.54    0.00    0.00   1.108   0.140   0.020   0.007   0.004   0.003   0.002   0.002   0.002   0.000
 1982 008     8   3.00  22.80  14.40 -99.000   0.738   0.000   0.738 -99.000 -99.000 -99.000   0.738   0.000   0.738   0.000   0.000   14.65   13.28    0.00   13.28    0.00    0.00   0.219   0.158   0.062   0.044   0.035   0.038   0.032   0.058   0.093   0.000
 1982 009     9  14.40  16.70   8.90 -99.000   3.148   0.000   3.148 -99.000 -99.000 -99.000   3.148   0.000   3.148   0.000   0.000   17.80   16.43    0.00   16.43    0.00    0.00   0.961   0.677   0.265   0.181   0.144   0.157   0.132   0.242   0.389   0.000
 1982 010    10  12.00  14.40   1.10 -99.000   2.332   0.000   2.332 -99.000 -99.000 -99.000   1.327   0.000   1.327   0.000   0.000   20.13   17.75    0.00   17.75    0.00    0.00   1.144   0.143   0.021   0.007   0.004   0.003   0.002   0.002   0.002   0.000
 1982 011    11  15.00  14.40  -6.70 -99.000   2.666   0.000   2.666 -99.000 -99.000 -99.000   1.219   0.000   1.219   0.000   0.000   22.79   18.97    0.00   18.97    0.00    0.00   1.037   0.142   0.021   0.007   0.004   0.003   0.002   0.002   0.002   0.000
 1982 012    12  10.80  10.00  -7.80 -99.000   1.745   0.000   1.745 -99.000 -99.000 -99.000   1.122   0.000   1.122   0.000   0.000   24.54   20.09    0.00   20.09    0.00    0.00   0.941   0.141   0.021   0.007   0.004   0.003   0.002   0.002   0.002   0.000
 1982 013    13   4.80  20.00   3.90 -99.000   1.032   0.000   1.032 -99.000 -99.000 -99.000   1.032   0.000   1.032   0.000   0.000   25.57   21.13    0.00   21.13    0.00    0.00   0.293   0.239   0.101   0.058   0.046   0.050   0.043   0.078   0.125   0.000
 1982 014    14   6.20  18.90   6.10 -99.000   1.368   0.000   1.368 -99.000 -99.000 -99.000   1.368   0.000   1.368   0.000   0.000   26.94   22.49    0.00   22.49    0.00    0.00   0.403   0.297   0.190   0.103   0.051   0.055   0.047   0.085   0.137   0.000
 1982 015    15  14.40  12.20  -3.30 -99.000   2.598   0.000   2.598 -99.000 -99.000 -99.000   2.598   0.000   2.598   0.000   0.000   29.54   25.09    0.00   25.09    0.00    0.00   0.669   0.504   0.431   0.266   0.120   0.103   0.087   0.160   0.257   0.000
 1982 016    16  12.60  19.40  -1.70 -99.000   2.577   0.000   2.577 -99.000 -99.000 -99.000   2.577   0.000   2.577   0.000   0.000   32.11   27.67    0.00   27.67    0.00    0.00   0.630   0.483   0.415   0.271   0.159   0.105   0.089   0.163   0.262   0.000
 1982 017    17  14.60  19.40   5.60 -99.000   3.193   0.000   3.193 -99.000 -99.000 -99.000   3.193   0.000   3.193   0.000   0.000   35.31   30.86    0.00   30.86    0.00    0.00   0.790   0.589   0.503   0.337   0.211   0.130   0.110   0.201   0.324   0.000
 1982 018    18  11.20  20.60   1.10 -99.000   2.394   0.000   2.394 -99.000 -99.000 -99.000   2.394   0.000   2.394   0.000   0.000   37.70   33.26    0.00   33.26    0.00    0.00   0.587   0.436   0.374   0.257   0.163   0.098   0.083   0.152   0.245   0.000
 1982 019    19  13.30  25.60   8.90 -99.000   3.250   0.000   3.250 -99.000 -99.000 -99.000   3.250   0.000   3.250   0.000   0.000   40.95   36.51    0.00   36.51    0.00    0.00   0.773   0.591   0.511   0.352   0.227   0.135   0.114   0.209   0.338   0.000
 1982 020    20  13.40  27.80   8.30 -99.000   3.340   0.000   3.340 -99.000 -99.000 -99.000   1.266   0.000   1.266   0.000   0.000   44.29   37.77    0.00   37.77    0.00    0.00   1.050   0.142   0.044   0.016   0.007   0.003   0.002   0.002   0.002   0.000
 1982 021    21  11.60  27.80  10.00 -99.000   2.921   0.000   2.921 -99.000 -99.000 -99.000   1.168   0.000   1.168   0.000   0.000   47.21   38.94    0.00   38.94    0.00    0.00   0.952   0.141   0.044   0.016   0.007   0.003   0.002   0.002   0.002   0.000
 1982 022    22  10.70  25.60  12.20 -99.000   2.663   0.000   2.663 -99.000 -99.000 -99.000   1.078   0.000   1.078   0.000   0.000   49.87   40.02    0.00   40.02    0.00    0.00   0.864   0.140   0.044   0.016   0.007   0.003   0.002   0.002   0.002   0.000
 1982 023    23  10.10  26.10  14.40 -99.000   2.566   0.000   2.566 -99.000 -99.000 -99.000   0.997   0.000   0.997   0.000   0.000   52.44   41.01    0.00   41.01    0.00    0.00   0.784   0.139   0.044   0.016   0.007   0.003   0.002   0.002   0.002   0.000
 1982 024    24  12.90  23.90  10.00 -99.000   3.070   0.000   3.070 -99.000 -99.000 -99.000   0.923   0.000   0.923   0.000   0.000   55.51   41.94    0.00   41.94    0.00    0.00   0.711   0.138   0.044   0.016   0.007   0.003   0.002   0.002   0.002   0.000
 1982 025    25  14.10  21.10   0.00 -99.000   2.946   0.000   2.946 -99.000 -99.000 -99.000   0.857   0.000   0.857   0.000   0.000   58.46   42.79    0.00   42.79    0.00    0.00   0.645   0.137   0.044   0.016   0.007   0.003   0.002   0.002   0.002   0.000
 1982 026    26  14.20  20.00   4.40 -99.000   3.039   0.000   3.039 -99.000 -99.000 -99.000   0.796   0.000   0.796   0.000   0.000   61.49   43.59    0.00   43.59    0.00    0.00   0.585   0.137   0.044   0.016   0.007   0.003   0.002   0.002   0.002   0.000
 1982 027    27  13.90  15.60  -1.10 -99.000   2.633   0.000   2.633 -99.000 -99.000 -99.000   0.741   0.000   0.741   0.000   0.000   64.13   44.33    0.00   44.33    0.00    0.00   0.530   0.136   0.044   0.016   0.007   0.003   0.002   0.002   0.002   0.000
 1982 028    28  13.80  21.70   2.20 -99.000   2.952   0.000   2.952 -99.000 -99.000 -99.000   0.690   0.000   0.690   0.000   0.000   67.08   45.02    0.00   45.02    0.00    0.00   0.481   0.135   0.043   0.016   0.007   0.003   0.002   0.002   0.002   0.000
 1982 029    29  13.30  22.20   3.30 -99.000   2.890   0.000   2.890 -99.000 -99.000 -99.000   0.645   0.000   0.645   0.000   0.000   69.97   45.67    0.00   45.67    0.00    0.00   0.436   0.134   0.043   0.016   0.007   0.003   0.002   0.002   0.002   0.000
 1982 030    30  12.50  25.60   8.90 -99.000   2.978   0.000   2.978 -99.000 -99.000 -99.000   0.603   0.000   0.603   0.000   0.000   72.95   46.27    0.00   46.27    0.00    0.00   0.396   0.133   0.043   0.016   0.007   0.003   0.002   0.002   0.002   0.000
 1982 031    31  12.60  28.90  13.30 -99.000   3.232   0.000   3.232 -99.000 -99.000 -99.000   0.566   0.000   0.566   0.000   0.000   76.18   46.84    0.00   46.84    0.00    0.00   0.359   0.133   0.043   0.016   0.007   0.003   0.002   0.002   0.002   0.000
 1982 032    32  14.00  26.10  12.20 -99.000   3.439   0.000   3.439 -99.000 -99.000 -99.000   0.545   0.000   0.545   0.000   0.000   79.62   47.38    0.00   47.38    0.00    0.00   0.340   0.132   0.043   0.016   0.007   0.003   0.002   0.002   0.002   0.000
 1982 033    33   7.60  26.70  12.80 -99.000   1.889   0.000   1.889 -99.000 -99.000 -99.000   0.620   0.000   0.620   0.000   0.000   81.51   48.00    0.00   48.00    0.00    0.00   0.415   0.131   0.043   0.016   0.007   0.003   0.002   0.002   0.002   0.000
 1982 034    34   3.30  27.20  15.60 -99.000   0.848   0.000   0.848 -99.000 -99.000 -99.000   0.848   0.000   0.848   0.000   0.000   82.36   48.85    0.00   48.85    0.00    0.00   0.178   0.168   0.138   0.094   0.061   0.035   0.030   0.055   0.089   0.000
 1982 035    35  12.50  24.40  14.40 -99.000   3.185   0.000   3.185 -99.000 -99.000 -99.000   3.185   0.000   3.185   0.000   0.000   85.54   52.03    0.00   52.03    0.00    0.00   0.841   0.613   0.487   0.326   0.212   0.119   0.101   0.186   0.300   0.000
 1982 036    36   8.50  27.80  14.40 -99.000   2.242   0.000   2.242 -99.000 -99.000 -99.000   2.242   0.000   2.242   0.000   0.000   87.78   54.28    0.00   54.28    0.00    0.00   0.552   0.417   0.347   0.237   0.170   0.087   0.074   0.136   0.221   0.000
 1982 037    37   6.30  26.70  17.20 -99.000   1.670   0.000   1.670 -99.000 -99.000 -99.000   1.670   0.000   1.670   0.000   0.000   89.45   55.95    0.00   55.95    0.00    0.00   0.398   0.305   0.258   0.177   0.138   0.067   0.056   0.103   0.167   0.000
 1982 038    38   8.00  26.70  10.60 -99.000   2.009   0.000   2.009 -99.000 -99.000 -99.000   2.009   0.000   2.009   0.000   0.000   91.46   57.96    0.00   57.96    0.00    0.00   0.469   0.366   0.312   0.215   0.169   0.083   0.068   0.125   0.203   0.000
 1982 039    39  12.50  25.00  10.00 -99.000   3.055   0.000   3.055 -99.000 -99.000 -99.000   1.299   0.000   1.299   0.000   0.000   94.52   59.25    0.00   59.25    0.00    0.00   1.076   0.146   0.044   0.016   0.008   0.003   0.002   0.002   0.002   0.000
 1982 040    40   7.90  26.70  16.10 -99.000   2.063   0.000   2.063 -99.000 -99.000 -99.000   1.198   0.000   1.198   0.000   0.000   96.58   60.45    0.00   60.45    0.00    0.00   0.976   0.145   0.044   0.016   0.008   0.003   0.002   0.002   0.002   0.000
 1982 041    41   4.00  25.60  14.40 -99.000   1.014   0.000   1.014 -99.000 -99.000 -99.000   1.014   0.000   1.014   0.000   0.000   97.59   61.47    0.00   61.47    0.00    0.00   0.818   0.128   0.039   0.014   0.007   0.002   0.001   0.002   0.002   0.000
 1982 042    42   6.50  18.90  12.80 -99.000   1.494   0.000   1.494 -99.000 -99.000 -99.000   1.104   0.000   1.104   0.000   0.000   99.09   62.57    0.00   62.57    0.00    0.00   0.884   0.143   0.044   0.016   0.008   0.003   0.002   0.002   0.002   0.000
 1982 043    43   7.40  25.00  10.60 -99.000   1.800   0.000   1.800 -99.000 -99.000 -99.000   1.058   0.000   1.058   0.000   0.000  100.89   63.63    0.00   63.63    0.00    0.00   0.839   0.143   0.044   0.016   0.008   0.003   0.002   0.002   0.002   0.000
 1982 044    44  13.30  25.60  10.60 -99.000   3.259   0.000   3.259 -99.000 -99.000 -99.000   3.259   0.000   3.259   0.000   0.000  104.15   66.89    0.00   66.89    0.00    0.00   0.756   0.623   0.506   0.344   0.269   0.132   0.108   0.199   0.322   0.000
 1982 045    45  16.10  26.10   5.60 -99.000   3.888   0.000   3.888 -99.000 -99.000 -99.000   3.888   0.000   3.888   0.000   0.000  108.03   70.77    0.00   70.77    0.00    0.00   0.980   0.723   0.583   0.397   0.312   0.169   0.124   0.229   0.371   0.000
 1982 046    46   9.60  26.70  13.30 -99.000   2.469   0.000   2.469 -99.000 -99.000 -99.000   2.469   0.000   2.469   0.000   0.000  110.50   73.24    0.00   73.24    0.00    0.00   0.588   0.449   0.377   0.258   0.203   0.122   0.081   0.149   0.243   0.000
 1982 047    47  10.80  27.80  16.10 -99.000   2.869   0.000   2.869 -99.000 -99.000 -99.000   2.869   0.000   2.869   0.000   0.000  113.37   76.11    0.00   76.11    0.00    0.00   0.695   0.528   0.447   0.308   0.239   0.149   0.086   0.159   0.258   0.000
 1982 048    48  13.40  27.20  14.40 -99.000   3.525   0.000   3.525 -99.000 -99.000 -99.000   3.525   0.000   3.525   0.000   0.000  116.90   79.64    0.00   79.64    0.00    0.00   0.869   0.652   0.554   0.383   0.295   0.209   0.096   0.177   0.289   0.000
 1982 049    49  17.00  26.10  11.10 -99.000   4.296   0.000   4.296 -99.000 -99.000 -99.000   4.296   0.000   4.296   0.000   0.000  121.19   83.93    0.00   83.93    0.00    0.00   0.999   0.761   0.650   0.450   0.352   0.319   0.158   0.231   0.376   0.000
 1982 050    50  15.50  25.60  12.20 -99.000   3.899   0.000   3.899 -99.000 -99.000 -99.000   3.899   0.000   3.899   0.000   0.000  125.09   87.83    0.00   87.83    0.00    0.00   0.860   0.669   0.575   0.399   0.314   0.317   0.197   0.216   0.352   0.000
 1982 051    51  16.90  25.60  10.00 -99.000   4.162   0.000   4.162 -99.000 -99.000 -99.000   4.162   0.000   4.162   0.000   0.000  129.26   91.99    0.00   91.99    0.00    0.00   0.877   0.708   0.611   0.424   0.335   0.347   0.241   0.236   0.384   0.000
 1982 052    52  16.60  24.40   9.40 -99.000   3.995   0.000   3.995 -99.000 -99.000 -99.000   3.995   0.000   3.995   0.000   0.000  133.25   95.99    0.00   95.99    0.00    0.00   0.799   0.677   0.592   0.412   0.327   0.340   0.241   0.231   0.377   0.000
 1982 053    53  17.00  21.10   7.80 -99.000   3.856   0.000   3.856 -99.000 -99.000 -99.000   3.856   0.000   3.856   0.000   0.000  137.11   99.84    0.00   99.84    0.00    0.00   0.732   0.652   0.577   0.404   0.321   0.334   0.237   0.227   0.372   0.000
 1982 054    54  17.70  23.90   1.10 -99.000   3.915   0.000   3.915 -99.000 -99.000 -99.000   1.073   0.000   1.073   0.000   0.000  141.02  100.92    0.00  100.92    0.00    0.00   0.858   0.136   0.043   0.016   0.008   0.006   0.003   0.002   0.002   0.000
 1982 055    55  17.50  26.70   3.30 -99.000   4.086   0.000   4.086 -99.000 -99.000 -99.000   0.992   0.000   0.992   0.000   0.000  145.11  101.91    0.00  101.91    0.00    0.00   0.778   0.135   0.043   0.016   0.008   0.006   0.003   0.002   0.002   0.000
 1982 056    56  14.80  27.20  10.60 -99.000   3.686   0.000   3.686 -99.000 -99.000 -99.000   0.919   0.000   0.919   0.000   0.000  148.79  102.83    0.00  102.83    0.00    0.00   0.706   0.134   0.043   0.016   0.008   0.006   0.003   0.002   0.002   0.000
 1982 057    57   3.40  26.70  11.10 -99.000   0.843   0.000   0.843 -99.000 -99.000 -99.000   0.843   0.000   0.843   0.000   0.000  149.64  103.67    0.00  103.67    0.00    0.00   0.633   0.132   0.042   0.016   0.008   0.006   0.003   0.002   0.002   0.000
 1982 058    58   8.90  25.60   8.90 -99.000   2.134   0.000   2.134 -99.000 -99.000 -99.000   0.793   0.000   0.793   0.000   0.000  151.77  104.47    0.00  104.47    0.00    0.00   0.581   0.132   0.043   0.016   0.008   0.006   0.003   0.002   0.002   0.000
 1982 059    59   9.30  24.40  15.60 -99.000   2.317   0.000   2.317 -99.000 -99.000 -99.000   0.738   0.000   0.738   0.000   0.000  154.09  105.20    0.00  105.20    0.00    0.00   0.527   0.132   0.043   0.016   0.008   0.006   0.003   0.002   0.002   0.000
 1982 060    60  10.90  17.80   8.30 -99.000   2.337   0.000   2.337 -99.000 -99.000 -99.000   0.688   0.000   0.688   0.000   0.000  156.43  105.89    0.00  105.89    0.00    0.00   0.478   0.131   0.043   0.016   0.008   0.006   0.003   0.002   0.002   0.000
 1982 061    61  18.40  22.80   1.70 -99.000   3.972   0.000   3.972 -99.000 -99.000 -99.000   0.643   0.000   0.643   0.000   0.000  160.40  106.54    0.00  106.54    0.00    0.00   0.434   0.130   0.043   0.016   0.008   0.006   0.003   0.002   0.002   0.000
 1982 062    62  17.60  25.00   6.10 -99.000   4.063   0.000   4.063 -99.000 -99.000 -99.000   0.602   0.000   0.602   0.000   0.000  164.46  107.14    0.00  107.14    0.00    0.00   0.394   0.129   0.043   0.016   0.008   0.006   0.003   0.002   0.002   0.000
 1982 063    63  16.20  28.30   9.40 -99.000   4.000   0.000   4.000 -99.000 -99.000 -99.000   0.564   0.000   0.564   0.000   0.000  168.46  107.70    0.00  107.70    0.00    0.00   0.357   0.128   0.043   0.016   0.008   0.006   0.003   0.002   0.002   0.000
 1982 064    64   6.30  27.80  16.10 -99.000   1.628   0.000   1.628 -99.000 -99.000 -99.000   0.921   0.000   0.921   0.000   0.000  170.09  108.62    0.00  108.62    0.00    0.00   0.714   0.128   0.043   0.016   0.008   0.006   0.003   0.002   0.002   0.000
 1982 065    65  10.30  25.00  16.10 -99.000   2.642   0.000   2.642 -99.000 -99.000 -99.000   2.642   0.000   2.642   0.000   0.000  172.73  111.26    0.00  111.26    0.00    0.00   0.616   0.451   0.390   0.260   0.201   0.209   0.146   0.140   0.230   0.000
 1982 066    66   9.00  24.40  15.00 -99.000   2.300   0.005   2.296 -99.000 -99.000 -99.000   2.300   0.005   2.296   0.000   0.000  175.03  113.56    0.00  113.56    0.00    0.00   0.559   0.419   0.348   0.223   0.167   0.170   0.118   0.110   0.181   0.000
 1982 067    67  19.80  16.70   1.10 -99.000   4.022   0.016   4.006 -99.000 -99.000 -99.000   4.022   0.016   4.006   0.000   0.000  179.05  117.59    0.02  117.57    0.00    0.00   0.917   0.693   0.592   0.396   0.303   0.312   0.239   0.221   0.333   0.002
 1982 068    68  19.60  21.70   3.90 -99.000   4.363   0.021   4.342 -99.000 -99.000 -99.000   4.363   0.021   4.342   0.000   0.000  183.42  121.95    0.04  121.91    0.00    0.00   0.941   0.728   0.626   0.426   0.332   0.349   0.288   0.279   0.373   0.002
 1982 069    69  16.10  25.60  10.60 -99.000   3.980   0.025   3.956 -99.000 -99.000 -99.000   3.980   0.025   3.956   0.000   0.000  187.40  125.93    0.07  125.86    0.00    0.00   0.816   0.657   0.567   0.390   0.308   0.324   0.270   0.274   0.349   0.002
 1982 070    70  17.70  27.80   9.40 -99.000   4.439   0.030   4.410 -99.000 -99.000 -99.000   4.439   0.030   4.410   0.000   0.000  191.83  130.37    0.10  130.27    0.00    0.00   0.865   0.730   0.638   0.441   0.349   0.368   0.307   0.314   0.397   0.003
 1982 071    71  20.00  28.90  11.10 -99.000   5.137   0.036   5.101 -99.000 -99.000 -99.000   1.182   0.036   1.146   0.000   0.000  196.97  131.55    0.13  131.42    0.00    0.00   0.925   0.139   0.044   0.016   0.008   0.006   0.004   0.002   0.002   0.004
 1982 072    72  19.00  30.60  10.00 -99.000   4.919   0.046   4.874 -99.000 -99.000 -99.000   1.103   0.046   1.057   0.000   0.000  201.89  132.65    0.18  132.48    0.00    0.00   0.838   0.138   0.044   0.016   0.008   0.006   0.004   0.002   0.002   0.005
 1982 073    73  18.40  31.70  15.60 -99.000   5.014   0.076   4.938 -99.000 -99.000 -99.000   1.052   0.076   0.977   0.000   0.000  206.91  133.71    0.25  133.45    0.00    0.00   0.758   0.137   0.044   0.016   0.008   0.006   0.004   0.002   0.002   0.008
 1982 074    74  17.50  30.00  16.70 -99.000   4.703   0.088   4.616 -99.000 -99.000 -99.000   0.991   0.088   0.904   0.000   0.000  211.61  134.70    0.34  134.36    0.00    0.00   0.686   0.136   0.044   0.016   0.008   0.006   0.004   0.002   0.002   0.009
 1982 075    75  15.90  30.00  16.10 -99.000   4.243   0.093   4.150 -99.000 -99.000 -99.000   0.931   0.093   0.838   0.000   0.000  215.85  135.63    0.43  135.19    0.00    0.00   0.622   0.135   0.044   0.016   0.008   0.006   0.004   0.002   0.002   0.009
 1982 076    76  19.50  30.60  15.60 -99.000   5.201   0.162   5.038 -99.000 -99.000 -99.000   0.940   0.161   0.779   0.000   0.000  221.05  136.57    0.60  135.97    0.00    0.00   0.564   0.134   0.044   0.016   0.008   0.006   0.004   0.002   0.002   0.016
 1982 077    77  17.40  31.70  17.20 -99.000   4.736   0.202   4.534 -99.000 -99.000 -99.000   0.926   0.202   0.725   0.000   0.000  225.79  137.49    0.80  136.70    0.00    0.00   0.511   0.132   0.043   0.016   0.008   0.006   0.004   0.002   0.002   0.020
 1982 078    78  16.70  30.60  18.30 -99.000   4.514   0.228   4.286 -99.000 -99.000 -99.000   0.987   0.228   0.759   0.000   0.000  230.30  138.48    1.03  137.46    0.00    0.00   0.548   0.131   0.043   0.016   0.008   0.006   0.004   0.002   0.002   0.023
 1982 079    79  17.40  30.60  18.90 -99.000   4.733   0.297   4.436 -99.000 -99.000 -99.000   1.087   0.297   0.790   0.000   0.000  235.04  139.57    1.32  138.25    0.00    0.00   0.580   0.129   0.043   0.016   0.008   0.006   0.004   0.002   0.002   0.030
 1982 080    80  13.60  30.00  15.60 -99.000   3.569   0.293   3.275 -99.000 -99.000 -99.000   1.026   0.292   0.734   0.000   0.000  238.60  140.60    1.62  138.98    0.00    0.00   0.526   0.127   0.043   0.016   0.008   0.006   0.004   0.002   0.002   0.029
 1982 081    81  10.00  28.30  17.20 -99.000   2.594   0.256   2.338 -99.000 -99.000 -99.000   0.953   0.256   0.697   0.000   0.000  241.20  141.55    1.87  139.68    0.00    0.00   0.491   0.125   0.043   0.016   0.008   0.006   0.004   0.002   0.002   0.026
 1982 082    82  13.20  26.10  16.10 -99.000   3.300   0.381   2.918 -99.000 -99.000 -99.000   1.442   0.381   1.061   0.000   0.000  244.50  142.99    2.25  140.74    0.00    0.00   0.854   0.126   0.043   0.016   0.008   0.006   0.004   0.002   0.002   0.038
 1982 083    83   4.30  26.10  16.10 -99.000   1.095   0.146   0.950 -99.000 -99.000 -99.000   1.095   0.146   0.950   0.000   0.000  245.59  144.09    2.40  141.69    0.00    0.00   0.229   0.142   0.127   0.091   0.072   0.076   0.064   0.065   0.083   0.015
 1982 084    84  17.00  27.80  16.10 -99.000   4.425   0.676   3.748 -99.000 -99.000 -99.000   4.424   0.676   3.748   0.000   0.000  250.02  148.51    3.07  145.43    0.00    0.00   0.932   0.628   0.515   0.346   0.269   0.282   0.234   0.239   0.302   0.068
 1982 085    85  18.80  26.70  14.40 -99.000   4.747   0.846   3.900 -99.000 -99.000 -99.000   4.746   0.846   3.900   0.000   0.000  254.77  153.26    3.92  149.33    0.00    0.00   0.935   0.673   0.559   0.370   0.282   0.292   0.240   0.243   0.307   0.085
 1982 086    86  12.90  22.20   5.60 -99.000   2.841   0.571   2.269 -99.000 -99.000 -99.000   2.840   0.571   2.269   0.000   0.000  257.61  156.10    4.49  151.60    0.00    0.00   0.507   0.378   0.321   0.220   0.171   0.179   0.148   0.157   0.188   0.057
 1982 087    87   3.80  15.60   8.90 -99.000   0.783   0.166   0.617 -99.000 -99.000 -99.000   0.782   0.166   0.617   0.000   0.000  258.39  156.88    4.66  152.22    0.00    0.00   0.144   0.103   0.085   0.058   0.045   0.047   0.039   0.044   0.050   0.017
 1982 088    88   9.90  21.10  10.00 -99.000   2.237   0.484   1.752 -99.000 -99.000 -99.000   2.236   0.484   1.752   0.000   0.000  260.63  159.11    5.14  153.97    0.00    0.00   0.425   0.302   0.248   0.166   0.126   0.129   0.106   0.118   0.132   0.048
 1982 089    89  21.50  26.10  13.30 -99.000   5.296   1.231   4.063 -99.000 -99.000 -99.000   5.294   1.231   4.063   0.000   0.000  265.92  164.41    6.37  158.04    0.00    0.00   0.903   0.681   0.582   0.392   0.299   0.308   0.256   0.322   0.319   0.123
 1982 090    90  16.10  26.70  14.40 -99.000   3.978   1.059   2.918 -99.000 -99.000 -99.000   3.977   1.059   2.918   0.000   0.000  269.90  168.38    7.43  160.95    0.00    0.00   0.612   0.472   0.407   0.279   0.217   0.227   0.191   0.274   0.238   0.106
 1982 091    91  21.00  30.60  12.80 -99.000   5.315   1.605   3.708 -99.000 -99.000 -99.000   5.313   1.605   3.708   0.000   0.000  275.21  173.70    9.04  164.66    0.00    0.00   0.745   0.595   0.513   0.355   0.279   0.295   0.247   0.370   0.309   0.161
 1982 092    92  22.10  29.40  14.40 -99.000   5.529   1.902   3.626 -99.000 -99.000 -99.000   3.119   1.902   1.217   0.000   0.000  280.74  176.82   10.94  165.88    0.00    0.00   0.994   0.140   0.044   0.016   0.008   0.006   0.004   0.004   0.002   0.190
 1982 093    93  11.40  28.90  17.80 -99.000   2.878   1.123   1.755 -99.000 -99.000 -99.000   2.212   1.123   1.090   0.000   0.000  283.62  179.03   12.06  166.97    0.00    0.00   0.872   0.136   0.043   0.016   0.008   0.006   0.004   0.004   0.002   0.112
 1982 094    94  23.80  28.30   9.40 -99.000   5.532   2.428   3.102 -99.000 -99.000 -99.000   3.416   2.428   0.988   0.000   0.000  289.15  182.44   14.49  167.96    0.00    0.00   0.774   0.133   0.043   0.016   0.008   0.006   0.004   0.004   0.002   0.243
 1982 095    95  18.90  29.40  11.10 -99.000   4.476   2.125   2.349 -99.000 -99.000 -99.000   3.016   2.125   0.891   0.000   0.000  293.63  185.46   16.61  168.85    0.00    0.00   0.683   0.128   0.042   0.015   0.008   0.006   0.004   0.004   0.002   0.212
 1982 096    96  24.10  25.60  17.20 -99.000   5.679   2.931   2.745 -99.000 -99.000 -99.000   3.748   2.931   0.817   0.000   0.000  299.31  189.21   19.54  169.66    0.00    0.00   0.616   0.123   0.041   0.015   0.008   0.006   0.004   0.004   0.002   0.293
 1982 097    97  25.10  22.20   6.70 -99.000   5.154   2.872   2.278 -99.000 -99.000 -99.000   3.618   2.867   0.751   0.000   0.000  304.46  192.83   22.41  170.41    0.00    0.00   0.557   0.116   0.039   0.015   0.008   0.006   0.004   0.004   0.002   0.287
 1982 098    98   0.80  21.10  11.10 -99.000   0.168   0.096   0.071 -99.000 -99.000 -99.000   0.168   0.096   0.071   0.000   0.000  304.63  192.99   22.51  170.49    0.00    0.00   0.013   0.012   0.010   0.007   0.005   0.006   0.005   0.007   0.006   0.010
 1982 099    99   8.80  23.30  17.20 -99.000   2.016   1.198   0.816 -99.000 -99.000 -99.000   2.015   1.198   0.816   0.000   0.000  306.65  195.01   23.71  171.30    0.00    0.00   0.188   0.139   0.114   0.075   0.058   0.062   0.050   0.072   0.058   0.120
 1982 100   100   3.80  23.90  10.60 -99.000   0.825   0.518   0.306 -99.000 -99.000 -99.000   0.824   0.518   0.306   0.000   0.000  307.47  195.83   24.22  171.61    0.00    0.00   0.069   0.048   0.041   0.029   0.023   0.025   0.020   0.029   0.021   0.052
 1982 101   101  23.00  20.60   8.90 -99.000   4.697   3.045   1.648 -99.000 -99.000 -99.000   4.693   3.045   1.648   0.000   0.000  312.17  200.53   27.27  173.26    0.00    0.00   0.363   0.261   0.222   0.155   0.124   0.131   0.109   0.170   0.115   0.304
 1982 102   102  25.40  25.00   6.10 -99.000   5.344   3.542   1.797 -99.000 -99.000 -99.000   5.339   3.542   1.797   0.000   0.000  317.51  205.86   30.81  175.05    0.00    0.00   0.371   0.279   0.239   0.166   0.131   0.140   0.118   0.205   0.149   0.354
 1982 103   103  21.60  28.30  11.70 -99.000   4.927   3.364   1.559 -99.000 -99.000 -99.000   4.923   3.364   1.559   0.000   0.000  322.44  210.79   34.18  176.61    0.00    0.00   0.312   0.237   0.204   0.142   0.113   0.121   0.101   0.185   0.144   0.336
 1982 104   104  21.60  27.20  15.00 -99.000   4.959   3.535   1.420 -99.000 -99.000 -99.000   4.955   3.535   1.420   0.000   0.000  327.40  215.74   37.71  178.03    0.00    0.00   0.276   0.213   0.186   0.129   0.103   0.110   0.093   0.174   0.136   0.354
 1982 105   105  16.60  28.30  15.00 -99.000   3.839   2.839   0.997 -99.000 -99.000 -99.000   3.836   2.839   0.997   0.000   0.000  331.24  219.58   40.55  179.03    0.00    0.00   0.188   0.147   0.130   0.092   0.073   0.078   0.066   0.125   0.098   0.284
 1982 106   106  20.70  30.60  17.80 -99.000   4.991   3.827   1.161 -99.000 -99.000 -99.000   4.987   3.827   1.161   0.000   0.000  336.23  224.57   44.38  180.19    0.00    0.00   0.213   0.168   0.151   0.107   0.086   0.093   0.078   0.149   0.116   0.383
 1982 107   107  21.00  31.10  19.40 -99.000   5.124   4.071   1.048 -99.000 -99.000 -99.000   5.120   4.071   1.048   0.000   0.000  341.35  229.68   48.45  181.24    0.00    0.00   0.189   0.148   0.135   0.097   0.078   0.085   0.072   0.137   0.108   0.407
 1982 108   108  18.90  30.00  18.90 -99.000   4.521   3.698   0.819 -99.000 -99.000 -99.000   4.517   3.698   0.819   0.000   0.000  345.87  234.20   52.15  182.06    0.00    0.00   0.148   0.112   0.103   0.075   0.061   0.067   0.057   0.109   0.086   0.370
 1982 109   109  21.60  30.00  15.00 -99.000   5.001   4.194   0.803 -99.000 -99.000 -99.000   4.997   4.194   0.803   0.000   0.000  350.88  239.20   56.34  182.86    0.00    0.00   0.143   0.106   0.100   0.074   0.060   0.067   0.057   0.109   0.086   0.419
 1982 110   110  20.70  31.10  18.90 -99.000   4.980   4.251   0.724 -99.000 -99.000 -99.000   4.976   4.251   0.724   0.000   0.000  355.86  244.17   60.59  183.58    0.00    0.00   0.124   0.093   0.089   0.067   0.055   0.062   0.053   0.101   0.079   0.425
 1982 111   111  24.30  32.20  17.20 -99.000   5.828   5.064   0.759 -99.000 -99.000 -99.000   5.822   5.064   0.759   0.000   0.000  361.68  250.00   65.66  184.34    0.00    0.00   0.125   0.095   0.092   0.070   0.058   0.066   0.057   0.109   0.086   0.506
 1982 112   112  23.70  31.70  17.80 -99.000   5.664   5.000   0.659 -99.000 -99.000 -99.000   5.659   5.000   0.659   0.000   0.000  367.35  255.66   70.65  185.00    0.00    0.00   0.012   0.024   0.042   0.046   0.049   0.069   0.072   0.173   0.172   0.500
 1982 113   113   8.60  31.10  15.60 -99.000   2.005   1.795   0.208 -99.000 -99.000 -99.000   2.003   1.795   0.208   0.000   0.000  369.35  257.66   72.45  185.21    0.00    0.00   0.004   0.007   0.013   0.014   0.015   0.022   0.023   0.055   0.055   0.179
 1982 114   114   7.50  22.20  13.90 -99.000   1.551   1.402   0.147 -99.000 -99.000 -99.000   1.549   1.402   0.147   0.000   0.000  370.90  259.21   73.85  185.36    0.00    0.00   0.003   0.005   0.009   0.010   0.011   0.015   0.016   0.039   0.039   0.140
 1982 115   115   7.70  25.60  16.70 -99.000   1.696   1.542   0.152 -99.000 -99.000 -99.000   1.694   1.542   0.152   0.000   0.000  372.60  260.90   75.39  185.51    0.00    0.00   0.130   0.013   0.004   0.002   0.001   0.001   0.001   0.001   0.000   0.154
 1982 116   116  10.70  25.60  19.40 -99.000   2.407   2.203   0.201 -99.000 -99.000 -99.000   2.404   2.203   0.201   0.000   0.000  375.01  263.31   77.60  185.71    0.00    0.00   0.049   0.029   0.020   0.015   0.013   0.015   0.014   0.026   0.020   0.220
 1982 117   117  23.40  29.40  15.60 -99.000   5.340   4.920   0.414 -99.000 -99.000 -99.000   5.334   4.920   0.414   0.000   0.000  380.35  268.64   82.52  186.12    0.00    0.00   0.098   0.071   0.045   0.029   0.024   0.030   0.027   0.051   0.040   0.492
 1982 118   118  23.70  28.90  13.30 -99.000   5.277   4.885   0.386 -99.000 -99.000 -99.000   5.271   4.885   0.386   0.000   0.000  385.62  273.91   87.40  186.51    0.00    0.00   0.086   0.064   0.044   0.027   0.023   0.028   0.026   0.049   0.039   0.489
 1982 119   119  18.50  27.20  14.40 -99.000   4.069   3.782   0.283 -99.000 -99.000 -99.000   4.065   3.782   0.283   0.000   0.000  389.69  277.98   91.18  186.79    0.00    0.00   0.238   0.030   0.008   0.002   0.001   0.001   0.001   0.001   0.000   0.378
 1982 120   120  20.70  26.70  15.60 -99.000   4.566   4.259   0.302 -99.000 -99.000 -99.000   4.561   4.259   0.302   0.000   0.000  394.26  282.54   95.44  187.09    0.00    0.00   0.253   0.033   0.008   0.003   0.001   0.001   0.001   0.001   0.001   0.426
 1982 121   121  18.20  26.70  15.60 -99.000   4.012   3.755   0.252 -99.000 -99.000 -99.000   4.008   3.755   0.252   0.000   0.000  398.27  286.55   99.20  187.35    0.00    0.00   0.210   0.028   0.007   0.002   0.001   0.001   0.001   0.001   0.000   0.376
 1982 122   122  19.90  27.80  15.00 -99.000   4.420   4.150   0.265 -99.000 -99.000 -99.000   4.415   4.150   0.265   0.000   0.000  402.69  290.96  103.35  187.61    0.00    0.00   0.220   0.030   0.008   0.003   0.001   0.001   0.001   0.001   0.001   0.415
 1982 123   123  21.80  28.90  15.00 -99.000   4.901   4.617   0.279 -99.000 -99.000 -99.000   4.896   4.617   0.279   0.000   0.000  407.59  295.86  107.97  187.89    0.00    0.00   0.230   0.032   0.008   0.003   0.002   0.001   0.001   0.001   0.001   0.462
 1982 124   124  23.60  28.90  12.80 -99.000   5.214   4.925   0.282 -99.000 -99.000 -99.000   5.208   4.925   0.282   0.000   0.000  412.80  301.06  112.89  188.17    0.00    0.00   0.231   0.033   0.009   0.003   0.002   0.001   0.001   0.001   0.001   0.493
 1982 125   125  24.40  28.30  14.40 -99.000   5.417   5.128   0.284 -99.000 -99.000 -99.000   5.411   5.128   0.284   0.000   0.000  418.22  306.48  118.02  188.46    0.00    0.00   0.230   0.034   0.009   0.003   0.002   0.002   0.001   0.001   0.001   0.513
 1982 126   126  21.70  27.80  12.20 -99.000   4.707   4.461   0.241 -99.000 -99.000 -99.000   4.701   4.461   0.241   0.000   0.000  422.93  311.18  122.48  188.70    0.00    0.00   0.196   0.027   0.008   0.003   0.002   0.001   0.001   0.001   0.001   0.446
 1982 127   127  23.60  28.90  11.70 -99.000   5.165   4.897   0.262 -99.000 -99.000 -99.000   5.159   4.897   0.262   0.000   0.000  428.09  316.34  127.38  188.96    0.00    0.00   0.213   0.030   0.009   0.003   0.002   0.002   0.001   0.001   0.001   0.490
 1982 128   128  18.20  29.40  17.80 -99.000   4.197   3.979   0.214 -99.000 -99.000 -99.000   4.193   3.979   0.214   0.000   0.000  432.29  320.53  131.36  189.17    0.00    0.00   0.176   0.023   0.007   0.003   0.001   0.001   0.001   0.001   0.001   0.398
 1982 129   129  26.30  29.40  15.00 -99.000   5.940   5.626   0.308 -99.000 -99.000 -99.000   5.934   5.626   0.308   0.000   0.000  438.23  326.46  136.98  189.48    0.00    0.00   0.256   0.031   0.010   0.004   0.002   0.002   0.001   0.002   0.001   0.563
 1982 130   130  26.30  29.40  13.30 -99.000   5.864   5.548   0.309 -99.000 -99.000 -99.000   5.857   5.548   0.309   0.000   0.000  444.09  332.32  142.53  189.79    0.00    0.00   0.255   0.033   0.010   0.004   0.002   0.002   0.001   0.002   0.001   0.555
 1982 131   131  24.90  30.00  11.10 -99.000   5.496   5.199   0.290 -99.000 -99.000 -99.000   5.489   5.199   0.290   0.000   0.000  449.59  337.81  147.73  190.08    0.00    0.00   0.237   0.032   0.010   0.004   0.002   0.002   0.001   0.002   0.001   0.520
 1982 132   132  23.50  31.10  13.30 -99.000   5.342   5.054   0.282 -99.000 -99.000 -99.000   5.336   5.054   0.282   0.000   0.000  454.93  343.15  152.78  190.36    0.00    0.00   0.230   0.032   0.010   0.004   0.002   0.002   0.001   0.002   0.001   0.505
 1982 133   133  24.20  30.60  13.30 -99.000   5.469   5.174   0.290 -99.000 -99.000 -99.000   4.310   4.020   0.290   0.000   0.000  460.40  347.46  156.80  190.65    0.00    0.00   0.234   0.033   0.011   0.004   0.002   0.002   0.001   0.002   0.001   0.402
 1982 134   134  26.70  31.10  12.80 -99.000   6.046   5.717   0.323 -99.000 -99.000 -99.000   3.077   2.754   0.323   0.000   0.000  466.45  350.53  159.56  190.98    0.00    0.00   0.260   0.037   0.012   0.005   0.002   0.002   0.001   0.002   0.001   0.275
 1982 135   135  23.90  32.20  15.60 -99.000   5.595   5.286   0.303 -99.000 -99.000 -99.000   2.590   2.287   0.303   0.000   0.000  472.04  353.12  161.84  191.28    0.00    0.00   0.243   0.036   0.012   0.004   0.002   0.002   0.001   0.002   0.001   0.229
 1982 136   136  22.80  33.30  15.60 -99.000   5.402   5.102   0.295 -99.000 -99.000 -99.000   2.289   1.994   0.295   0.000   0.000  477.44  355.41  163.84  191.57    0.00    0.00   0.235   0.036   0.012   0.004   0.002   0.002   0.001   0.002   0.001   0.199
 1982 137   137  22.70  32.80  15.60 -99.000   5.349   5.050   0.294 -99.000 -99.000 -99.000   2.078   1.783   0.294   0.000   0.000  482.79  357.49  165.62  191.87    0.00    0.00   0.233   0.037   0.012   0.004   0.002   0.002   0.001   0.002   0.001   0.178
 1982 138   138  21.50  31.10  16.70 -99.000   5.013   4.728   0.280 -99.000 -99.000 -99.000   1.906   1.626   0.280   0.000   0.000  487.81  359.40  167.25  192.15    0.00    0.00   0.219   0.036   0.012   0.004   0.002   0.002   0.001   0.002   0.001   0.163
 1982 139   139  22.40  30.60  16.70 -99.000   5.195   4.893   0.297 -99.000 -99.000 -99.000   1.721   1.425   0.297   0.000   0.000  493.00  361.12  168.67  192.44    0.00    0.00   0.230   0.039   0.013   0.005   0.002   0.002   0.001   0.003   0.001   0.142
 1982 140   140  22.50  31.70  16.10 -99.000   5.259   4.953   0.300 -99.000 -99.000 -99.000   1.644   1.344   0.300   0.000   0.000  498.26  362.76  170.02  192.74    0.00    0.00   0.231   0.041   0.013   0.005   0.003   0.002   0.001   0.003   0.001   0.134
 1982 141   141  22.60  32.20  16.10 -99.000   5.311   5.002   0.304 -99.000 -99.000 -99.000   1.526   1.223   0.304   0.000   0.000  503.57  364.29  171.24  193.05    0.00    0.00   0.230   0.043   0.014   0.005   0.003   0.002   0.001   0.003   0.001   0.122
 1982 142   142  17.40  32.80  16.70 -99.000   4.134   3.892   0.238 -99.000 -99.000 -99.000   1.364   1.126   0.238   0.000   0.000  507.70  365.65  172.36  193.29    0.00    0.00   0.189   0.029   0.009   0.004   0.002   0.001   0.001   0.002   0.001   0.113
 1982 143   143  13.20  33.30  20.00 -99.000   3.229   3.038   0.189 -99.000 -99.000 -99.000   1.237   1.048   0.189   0.000   0.000  510.93  366.89  173.41  193.48    0.00    0.00   0.161   0.020   0.004   0.001   0.001   0.001   0.000   0.001   0.000   0.105
 1982 144   144  21.50  32.80  18.90 -99.000   5.202   4.885   0.312 -99.000 -99.000 -99.000   5.197   4.885   0.312   0.000   0.000  516.14  372.08  178.30  193.79    0.00    0.00   0.090   0.062   0.029   0.016   0.012   0.014   0.013   0.042   0.033   0.489
 1982 145   145  20.30  32.80  20.00 -99.000   4.950   4.641   0.305 -99.000 -99.000 -99.000   4.946   4.641   0.305   0.000   0.000  521.09  377.03  182.94  194.09    0.00    0.00   0.084   0.057   0.032   0.016   0.013   0.014   0.013   0.042   0.034   0.464
 1982 146   146  15.00  31.70  20.60 -99.000   3.631   3.397   0.231 -99.000 -99.000 -99.000   3.628   3.397   0.231   0.000   0.000  524.72  380.66  186.34  194.32    0.00    0.00   0.062   0.042   0.025   0.012   0.010   0.011   0.010   0.033   0.026   0.340
 1982 147   147  18.20  32.20  21.10 -99.000   4.445   4.156   0.284 -99.000 -99.000 -99.000   4.441   4.156   0.284   0.000   0.000  529.16  385.10  190.49  194.61    0.00    0.00   0.073   0.051   0.030   0.016   0.012   0.014   0.013   0.042   0.033   0.416
 1982 148   148  22.10  33.30  20.60 -99.000   5.440   5.085   0.351 -99.000 -99.000 -99.000   5.435   5.085   0.351   0.000   0.000  534.60  390.53  195.58  194.96    0.00    0.00   0.092   0.060   0.036   0.019   0.016   0.018   0.016   0.052   0.042   0.508
 1982 149   149  19.30  34.40  22.20 -99.000   4.861   4.539   0.318 -99.000 -99.000 -99.000   4.857   4.539   0.318   0.000   0.000  539.46  395.39  200.12  195.28    0.00    0.00   0.084   0.051   0.033   0.018   0.014   0.017   0.015   0.048   0.039   0.454
 1982 150   150   7.00  32.20  22.80 -99.000   1.730   1.613   0.116 -99.000 -99.000 -99.000   1.729   1.613   0.116   0.000   0.000  541.19  397.12  201.73  195.39    0.00    0.00   0.032   0.017   0.012   0.007   0.005   0.006   0.005   0.018   0.014   0.161
 1982 151   151  11.80  30.00  20.60 -99.000   2.808   2.610   0.195 -99.000 -99.000 -99.000   2.806   2.610   0.195   0.000   0.000  544.00  399.93  204.34  195.59    0.00    0.00   0.056   0.035   0.021   0.010   0.008   0.009   0.008   0.027   0.021   0.261
 1982 152   152  20.00  31.10  21.10 -99.000   4.837   4.481   0.351 -99.000 -99.000 -99.000   4.833   4.481   0.351   0.000   0.000  548.84  404.76  208.82  195.94    0.00    0.00   0.095   0.070   0.046   0.018   0.013   0.015   0.013   0.045   0.036   0.448
 1982 153   153  24.90  33.30  20.00 -99.000   6.120   5.650   0.464 -99.000 -99.000 -99.000   6.115   5.650   0.464   0.000   0.000  554.96  410.87  214.47  196.40    0.00    0.00   0.115   0.086   0.068   0.028   0.018   0.021   0.018   0.061   0.049   0.565
 1982 154   154  15.80  33.30  22.80 -99.000   3.959   3.644   0.312 -99.000 -99.000 -99.000   3.956   3.644   0.312   0.000   0.000  558.92  414.83  218.11  196.71    0.00    0.00   0.076   0.055   0.044   0.021   0.013   0.014   0.013   0.042   0.034   0.364
 1982 155   155  21.60  33.30  22.20 -99.000   5.394   4.948   0.441 -99.000 -99.000 -99.000   5.389   4.948   0.441   0.000   0.000  564.31  420.22  223.06  197.16    0.00    0.00   0.106   0.077   0.061   0.030   0.018   0.021   0.018   0.061   0.049   0.495
 1982 156   156  23.80  33.90  18.30 -99.000   5.821   5.321   0.495 -99.000 -99.000 -99.000   5.816   5.321   0.495   0.000   0.000  570.13  426.03  228.38  197.65    0.00    0.00   0.419   0.052   0.015   0.004   0.002   0.001   0.001   0.002   0.001   0.532
 1982 157   157  26.50  34.40  18.30 -99.000   6.517   5.936   0.576 -99.000 -99.000 -99.000   6.512   5.936   0.576   0.000   0.000  576.65  432.55  234.32  198.23    0.00    0.00   0.483   0.062   0.018   0.005   0.002   0.002   0.001   0.002   0.001   0.594
 1982 158   158  26.90  33.90  18.30 -99.000   6.583   5.964   0.613 -99.000 -99.000 -99.000   6.577   5.964   0.613   0.000   0.000  583.23  439.12  240.28  198.84    0.00    0.00   0.510   0.068   0.020   0.006   0.002   0.002   0.001   0.003   0.001   0.596
 1982 159   159  26.30  34.40  17.20 -99.000   6.423   5.785   0.633 -99.000 -99.000 -99.000   6.417   5.785   0.633   0.000   0.000  589.66  445.54  246.07  199.47    0.00    0.00   0.518   0.074   0.022   0.007   0.003   0.002   0.002   0.003   0.002   0.578
 1982 160   160  24.40  34.40  19.40 -99.000   6.055   5.421   0.629 -99.000 -99.000 -99.000   4.443   3.814   0.629   0.000   0.000  595.71  449.98  249.88  200.10    0.00    0.00   0.516   0.069   0.023   0.008   0.003   0.003   0.002   0.004   0.002   0.381
 1982 161   161  25.50  34.40  21.10 -99.000   6.407   5.703   0.699 -99.000 -99.000 -99.000   2.851   2.182   0.668   0.000   0.000  602.12  452.83  252.06  200.77    0.00    0.00   0.542   0.077   0.025   0.009   0.004   0.003   0.002   0.004   0.002   0.218
 1982 162   162  23.60  35.00  19.40 -99.000   5.901   5.215   0.681 -99.000 -99.000 -99.000   2.321   1.707   0.614   0.000   0.000  608.02  455.16  253.77  201.38    0.00    0.00   0.491   0.074   0.024   0.009   0.004   0.003   0.002   0.004   0.002   0.171
 1982 163   163  15.20  31.10  20.00 -99.000   3.666   3.213   0.449 -99.000 -99.000 -99.000   1.891   1.441   0.449   0.000   0.000  611.69  457.05  255.21  201.83    0.00    0.00   0.377   0.050   0.012   0.003   0.002   0.001   0.001   0.002   0.001   0.144
 1982 164   164  21.10  33.30  21.10 -99.000   5.279   4.583   0.692 -99.000 -99.000 -99.000   5.275   4.583   0.692   0.000   0.000  616.96  462.32  259.80  202.53    0.00    0.00   0.178   0.134   0.093   0.038   0.027   0.031   0.027   0.092   0.074   0.458
 1982 165   165  25.50  33.30  18.30 -99.000   6.261   5.372   0.884 -99.000 -99.000 -99.000   6.255   5.372   0.884   0.000   0.000  623.23  468.58  265.17  203.41    0.00    0.00   0.214   0.162   0.126   0.050   0.035   0.040   0.036   0.121   0.098   0.537
 1982 166   166  23.20  33.90  20.60 -99.000   5.832   4.946   0.881 -99.000 -99.000 -99.000   5.827   4.946   0.881   0.000   0.000  629.06  474.40  270.11  204.29    0.00    0.00   0.742   0.096   0.027   0.006   0.003   0.002   0.001   0.003   0.002   0.495
 1982 167   167  25.50  33.90  22.20 -99.000   6.489   5.430   1.053 -99.000 -99.000 -99.000   6.484   5.430   1.053   0.000   0.000  635.55  480.89  275.54  205.34    0.00    0.00   0.875   0.121   0.035   0.008   0.004   0.003   0.002   0.004   0.002   0.543
 1982 168   168   6.00  31.10  21.10 -99.000   1.473   1.212   0.260 -99.000 -99.000 -99.000   1.472   1.212   0.260   0.000   0.000  637.02  482.36  276.76  205.60    0.00    0.00   0.222   0.025   0.007   0.002   0.001   0.001   0.000   0.001   0.000   0.121
 1982 169   169  13.50  27.80  21.10 -99.000   3.217   2.601   0.614 -99.000 -99.000 -99.000   3.214   2.601   0.614   0.000   0.000  640.24  485.57  279.36  206.22    0.00    0.00   0.164   0.107   0.086   0.043   0.023   0.026   0.023   0.078   0.063   0.260
 1982 170   170  24.30  33.30  20.00 -99.000   6.120   4.848   1.267 -99.000 -99.000 -99.000   6.115   4.848   1.267   0.000   0.000  646.36  491.69  284.20  207.48    0.00    0.00   0.302   0.226   0.193   0.115   0.051   0.052   0.046   0.156   0.126   0.485
 1982 171   171  25.90  33.90  21.10 -99.000   6.627   5.121   1.502 -99.000 -99.000 -99.000   6.622   5.121   1.502   0.000   0.000  652.98  498.31  289.32  208.99    0.00    0.00   0.339   0.257   0.221   0.146   0.071   0.064   0.056   0.192   0.155   0.512
 1982 172   172  20.90  32.80  20.00 -99.000   5.264   3.938   1.323 -99.000 -99.000 -99.000   5.261   3.938   1.323   0.000   0.000  658.25  503.57  293.26  210.31    0.00    0.00   0.306   0.221   0.188   0.128   0.064   0.057   0.050   0.172   0.139   0.394
 1982 173   173  18.50  28.30  23.30 -99.000   4.574   3.297   1.274 -99.000 -99.000 -99.000   4.571   3.297   1.274   0.000   0.000  662.82  508.14  296.56  211.58    0.00    0.00   0.310   0.211   0.173   0.119   0.061   0.055   0.048   0.165   0.133   0.330
 1982 174   174  11.70  27.80  21.70 -99.000   2.861   1.972   0.887 -99.000 -99.000 -99.000   2.859   1.972   0.887   0.000   0.000  665.68  511.00  298.53  212.47    0.00    0.00   0.220   0.158   0.124   0.081   0.041   0.036   0.032   0.108   0.088   0.197
 1982 175   175  18.60  30.60  22.20 -99.000   4.749   3.103   1.643 -99.000 -99.000 -99.000   4.746   3.103   1.643   0.000   0.000  670.43  515.75  301.63  214.11    0.00    0.00   0.415   0.305   0.238   0.152   0.076   0.062   0.055   0.188   0.152   0.310
 1982 176   176  22.90  32.20  19.40 -99.000   5.885   3.554   2.327 -99.000 -99.000 -99.000   5.881   3.554   2.327   0.000   0.000  676.32  521.63  305.19  216.44    0.00    0.00   0.578   0.427   0.337   0.222   0.120   0.087   0.077   0.265   0.214   0.355
