*SIMULATION OVERVIEW FILE

*DSSAT Cropping System Model Ver. 4.7.5.042 -develop  JAN 20, 2022 15:55:41

*RUN   1        : RAINFED HIGH NITROGEN     MZIXM047 EXPT0001    1
 MODEL          : MZIXM047 - Maize
 EXPERIMENT     : EXPT0001 EX
 DATA PATH      :
 TREATMENT  1   : RAINFED HIGH NITROGEN     MZIXM047


 CROP           : Maize            CULTIVAR : 2650-2700 GDD    ECOTYPE :IB0001
 STARTING DATE  : JAN  1 1982
 PLANTING DATE  : FEB 25 1982      PLANTS/m2 :     8.7    ROW SPACING :  76.cm
 HARVEST DATE   : JUN 25 1982
 WEATHER        : UFGA   1982
 SOIL           : TEST000001     TEXTURE : XXXX  -   ISRIC soilgrids + HC27
 SOIL INITIAL C : DEPTH:200cm EXTR. H2O:251.8mm  NO3:  0.0kg/ha  NH4:  0.0kg/ha
 WATER BALANCE  : RAINFED
 IRRIGATION     : NOT IRRIGATED
 NITROGEN BAL.  : NOT SIMULATED ; NO N-STRESS
 N-FERTILIZER   :
 RESIDUE/MANURE :
 ENVIRONM. OPT. : DAYL=    0.00  SRAD=    0.00  TMAX=    0.00  TMIN=    0.00
                  RAIN=    0.00  CO2 =    0.00  DEW =    0.00  WIND=    0.00
 SIMULATION OPT : WATER   :Y  NITROGEN:N  N-FIX:N  PHOSPH :N  PESTS  :N
                  PHOTO   :R  ET      :R  INFIL:S  HYDROL :R  SOM    :G
                  CO2 341ppm  NSWIT   :1  EVAP :S  SOIL   :2  STEMP  :D
 MANAGEMENT OPT : PLANTING:R  IRRIG   :N  FERT :N  RESIDUE:N  HARVEST:R
                  WEATHER :M  TILLAGE :Y

*SUMMARY OF SOIL AND GENETIC INPUT PARAMETERS

   SOIL LOWER UPPER   SAT  EXTR  INIT   ROOT   BULK     pH    NO3    NH4    ORG
  DEPTH LIMIT LIMIT    SW    SW    SW   DIST   DENS                          C
   cm   cm3/cm3    cm3/cm3    cm3/cm3         g/cm3         ugN/g  ugN/g     %
-------------------------------------------------------------------------------
  0-  5 0.161 0.295 0.423 0.134 0.086   1.00   1.43   6.78   0.10   0.50   3.77
  5- 15 0.160 0.294 0.421 0.134 0.086   0.85   1.52   6.74   0.10   0.50   3.50
 15- 30 0.165 0.297 0.419 0.132 0.086   0.70   1.52   6.78   0.10   0.50   2.66
 30- 45 0.165 0.294 0.415 0.129 0.086   0.50   1.59   6.93   0.10   0.50   1.75
 45- 60 0.165 0.294 0.415 0.129 0.086   0.50   1.59   6.93   0.10   0.50   1.75
 60- 80 0.164 0.287 0.408 0.123 0.076   0.38   1.63   7.08   0.10   0.60   0.64
 80-100 0.164 0.287 0.408 0.123 0.076   0.38   1.63   7.08   0.10   0.55   0.64
100-150 0.150 0.274 0.402 0.124 0.108   0.06   1.62   7.73   0.10   0.50   0.26
150-200 0.150 0.274 0.402 0.124 0.258   0.06   1.62   7.73   0.10   0.50   0.26

TOT-200  31.4  56.6  81.6  25.2  26.5  <--cm   -  kg/ha-->    0.0    0.0      0
SOIL ALBEDO    : 0.10      EVAPORATION LIMIT : 6.00         MIN. FACTOR  : 1.00
RUNOFF CURVE # :75.00      DRAINAGE RATE     : 0.50         FERT. FACTOR : 1.00

 Maize      CULTIVAR :PC0003-2650-2700 GDD      ECOTYPE :IB0001
 P1     : 212.00  P2     : 0.7500  P5     : 850.00  AX     : 723.3
 G2     : 800.00  G3     :  8.500  PHINT  : 49.000  LX     : 805.6


*SIMULATED CROP AND SOIL STATUS AT MAIN DEVELOPMENT STAGES

 RUN NO.     1     RAINFED HIGH NITROGEN   

        CROP GROWTH     BIOMASS         LEAF   CROP N     STRESS      STRESS                                           
   DATE  AGE STAGE        kg/ha    LAI   NUM  kg/ha  %   H2O  Nitr Phos1 Phos2  RSTG                                   
 ------  --- ----------   -----  -----  ----  ---  ---  ----  ----  ----  ----  ----                                   
  1 JAN    0 Start Sim        0   0.00   0.0    0  0.0  0.00  0.00  0.00  0.00     7
 25 FEB    0 Sowing           0   0.00   0.0    0  0.0  0.00  0.00  0.00  0.00     8
 26 FEB    1 Germinate        0   0.00   0.0    0  0.0  0.00  0.00  0.00  0.00     9
  6 MAR    9 Emergence       38   0.00   0.9    0  0.0  0.00  0.00  0.00  0.00     1
 22 MAR   25 End Juveni     168   0.18   5.5    0  0.0  0.00  0.00  0.00  0.00     2
 27 MAR   30 Floral Ini     328   0.35   6.7    0  0.0  0.00  0.00  0.00  0.00     3
  9 MAY   73 75% Silkin   10690   4.29  15.8    0  0.0  0.00  0.00  0.00  0.00     4
 20 MAY   84 Beg Gr Fil   12562   4.18  15.8    0  0.0  0.55  0.00  0.00  0.00     5
 24 JUN  119 End Gr Fil   19965   1.35  15.8    0  0.0  0.15  0.00  0.00  0.00     6
 25 JUN  120 Harvest      20024   1.12  15.8    0  0.0  0.00  0.00  0.00  0.00     6


*MAIN GROWTH AND DEVELOPMENT VARIABLES

@     VARIABLE                                         SIMULATED     MEASURED
      --------                                         ---------     --------
      Anthesis day (dap)                                      73          -99
      Physiological maturity day (dap)                       -99          -99
      Yield at harvest maturity (kg [dm]/ha)               10183          -99
      Number at maturity (no/m2)                            4961          -99
      Unit wt at maturity (g [dm]/unit)                   0.2053          -99
      Number at maturity (no/unit)                         583.7          -99
      Tops weight at maturity (kg [dm]/ha)                 20024          -99
      By-product produced (stalk) at maturity (kg[dm]/ha    9901          -99
      Leaf area index, maximum                              4.35          -99
      Harvest index at maturity                            0.509          -99
      Grain N at maturity (kg/ha)                              0          -99
      Tops N at maturity (kg/ha)                               0          -99
      Stem N at maturity (kg/ha)                               0          -99
      Grain N at maturity (%)                                0.0          -99
      Tops weight at anthesis (kg [dm]/ha)                 10242          -99
      Tops N at anthesis (kg/ha)                               0          -99
      Leaf number per stem at maturity                     15.76          -99
      Emergence day (dap)                                      9          -99


*ENVIRONMENTAL AND STRESS FACTORS

 |-----Development Phase------|--------------------------------------Environment--------------------------------------|-----------------Stress-----------------|
                              |---------------Average--------------|-----Cumulative-----|--------Count of days--------|          (0=Min, 1=Max Stress)         |
                         Time  Temp  Temp  Temp Solar Photop                Evapo    Pot TMIN TMIN TMAX TMAX TMAX RAIN|----Water----|---Nitrogen--|-Phosphorus-|
                         Span   Max   Min  Mean   Rad  [day]    CO2   Rain  Trans     ET   <    <    >    >    >    >   Photo         Photo         Photo
                         days    øC    øC    øC MJ/m2     hr    ppm     mm     mm     mm  0øC  2øC 30øC 32øC 34øC  0mm  synth Growth  synth Growth  synth Growth
----------------------------------------------------------------------------------------------------------------------------------------------------------------
 Emergence-End Juvenile    16  27.9  13.2  20.5  16.7  11.73  340.8   51.1   32.0   68.5    0    1    6    0    0    3  0.000  0.000  0.000  0.000  0.000  0.000
 End Juvenil-Floral Init    5  27.0  16.0  21.5  12.7  12.05  340.8   43.0   12.7   16.2    0    0    0    0    0    5  0.000  0.000  0.000  0.000  0.000  0.000
 Floral Init-End Lf Grow   43  27.1  14.0  20.5  18.0  12.76  340.9  258.2  167.3  177.5    0    0    7    1    0   12  0.000  0.000  0.000  0.000  0.000  0.000
 End Lf Grth-Beg Grn Fil   11  31.1  14.5  22.8  24.1  13.46  340.9    0.0   40.6   60.7    0    0    8    3    0    0  0.355  0.471  0.000  0.000  0.000  0.000
 Grain Filling Phase       35  32.6  20.1  26.4  20.0  13.80  341.0  256.2  149.9  172.7    0    0   31   26    6   16  0.142  0.171  0.000  0.000  0.000  0.000
   
 Planting to Harvest      120  29.0  15.5  22.3  18.3  12.86  340.9  623.3  413.8  525.3    0    2   53   30    6   38  0.074  0.093  0.000  0.000  0.000  0.000
----------------------------------------------------------------------------------------------------------------------------------------------------------------


*Resource Productivity
 Growing season length: 120 days 

 Precipitation during growing season       623.3 mm[rain]
   Dry Matter Productivity                  3.21 kg[DM]/m3[rain]          =   32.1 kg[DM]/ha per mm[rain]
   Yield Productivity                       1.63 kg[grain yield]/m3[rain] =   16.3 kg[yield]/ha per mm[rain]

 Evapotranspiration during growing season  413.8 mm[ET]
   Dry Matter Productivity                  4.84 kg[DM]/m3[ET]            =   48.4 kg[DM]/ha per mm[ET]
   Yield Productivity                       2.46 kg[grain yield]/m3[ET]   =   24.6 kg[yield]/ha per mm[ET]

 Transpiration during growing season       305.2 mm[EP]
   Dry Matter Productivity                  6.56 kg[DM]/m3[EP]            =   65.6 kg[DM]/ha per mm[EP]
   Yield Productivity                       3.34 kg[grain yield]/m3[EP]   =   33.4 kg[yield]/ha per mm[EP]

--------------------------------------------------------------------------------------------------------------

                     Maize YIELD :    10183 kg/ha    [Dry weight] 

**************************************************************************************************************

*DSSAT Cropping System Model Ver. 4.7.5.042 -develop  JAN 20, 2022 15:55:43

*RUN   1        : RAINFED HIGH NITROGEN     MZIXM047 EXPT0001    1
 MODEL          : MZIXM047 - Maize
 EXPERIMENT     : EXPT0001 EX
 DATA PATH      :
 TREATMENT  1   : RAINFED HIGH NITROGEN     MZIXM047


 CROP           : Maize            CULTIVAR : 2650-2700 GDD    ECOTYPE :IB0001
 STARTING DATE  : JAN  1 1982
 PLANTING DATE  : FEB 25 1982      PLANTS/m2 :     8.7    ROW SPACING :  76.cm
 HARVEST DATE   : JUN 25 1982
 WEATHER        : UFGA   1982
 SOIL           : TEST000001     TEXTURE : XXXX  -   ISRIC soilgrids + HC27
 SOIL INITIAL C : DEPTH:200cm EXTR. H2O:251.8mm  NO3:  0.0kg/ha  NH4:  0.0kg/ha
 WATER BALANCE  : RAINFED
 IRRIGATION     : NOT IRRIGATED
 NITROGEN BAL.  : NOT SIMULATED ; NO N-STRESS
 N-FERTILIZER   :
 RESIDUE/MANURE :
 ENVIRONM. OPT. : DAYL=    0.00  SRAD=    0.00  TMAX=    0.00  TMIN=    0.00
                  RAIN=    0.00  CO2 =    0.00  DEW =    0.00  WIND=    0.00
 SIMULATION OPT : WATER   :Y  NITROGEN:N  N-FIX:N  PHOSPH :N  PESTS  :N
                  PHOTO   :R  ET      :R  INFIL:S  HYDROL :R  SOM    :G
                  CO2 341ppm  NSWIT   :1  EVAP :S  SOIL   :2  STEMP  :D
 MANAGEMENT OPT : PLANTING:R  IRRIG   :N  FERT :N  RESIDUE:N  HARVEST:R
                  WEATHER :M  TILLAGE :Y

*SUMMARY OF SOIL AND GENETIC INPUT PARAMETERS

   SOIL LOWER UPPER   SAT  EXTR  INIT   ROOT   BULK     pH    NO3    NH4    ORG
  DEPTH LIMIT LIMIT    SW    SW    SW   DIST   DENS                          C
   cm   cm3/cm3    cm3/cm3    cm3/cm3         g/cm3         ugN/g  ugN/g     %
-------------------------------------------------------------------------------
  0-  5 0.161 0.295 0.423 0.134 0.086   1.00   1.43   6.78   0.10   0.50   3.77
  5- 15 0.160 0.294 0.421 0.134 0.086   0.85   1.52   6.74   0.10   0.50   3.50
 15- 30 0.165 0.297 0.419 0.132 0.086   0.70   1.52   6.78   0.10   0.50   2.66
 30- 45 0.165 0.294 0.415 0.129 0.086   0.50   1.59   6.93   0.10   0.50   1.75
 45- 60 0.165 0.294 0.415 0.129 0.086   0.50   1.59   6.93   0.10   0.50   1.75
 60- 80 0.164 0.287 0.408 0.123 0.076   0.38   1.63   7.08   0.10   0.60   0.64
 80-100 0.164 0.287 0.408 0.123 0.076   0.38   1.63   7.08   0.10   0.55   0.64
100-150 0.150 0.274 0.402 0.124 0.108   0.06   1.62   7.73   0.10   0.50   0.26
150-200 0.150 0.274 0.402 0.124 0.258   0.06   1.62   7.73   0.10   0.50   0.26

TOT-200  31.4  56.6  81.6  25.2  26.5  <--cm   -  kg/ha-->    0.0    0.0      0
SOIL ALBEDO    : 0.10      EVAPORATION LIMIT : 6.00         MIN. FACTOR  : 1.00
RUNOFF CURVE # :75.00      DRAINAGE RATE     : 0.50         FERT. FACTOR : 1.00

 Maize      CULTIVAR :PC0003-2650-2700 GDD      ECOTYPE :IB0001
 P1     : 212.00  P2     : 0.7500  P5     : 850.00  AX     : 723.3
 G2     : 800.00  G3     :  8.500  PHINT  : 49.000  LX     : 805.6


*SIMULATED CROP AND SOIL STATUS AT MAIN DEVELOPMENT STAGES

 RUN NO.     1     RAINFED HIGH NITROGEN   

        CROP GROWTH     BIOMASS         LEAF   CROP N     STRESS      STRESS                                           
   DATE  AGE STAGE        kg/ha    LAI   NUM  kg/ha  %   H2O  Nitr Phos1 Phos2  RSTG                                   
 ------  --- ----------   -----  -----  ----  ---  ---  ----  ----  ----  ----  ----                                   
  1 JAN    0 Start Sim        0   0.00   0.0    0  0.0  0.00  0.00  0.00  0.00     7
 25 FEB    0 Sowing           0   0.00   0.0    0  0.0  0.00  0.00  0.00  0.00     8
 26 FEB    1 Germinate        0   0.00   0.0    0  0.0  0.00  0.00  0.00  0.00     9
  6 MAR    9 Emergence       38   0.00   0.9    0  0.0  0.00  0.00  0.00  0.00     1
 22 MAR   25 End Juveni     168   0.18   5.5    0  0.0  0.00  0.00  0.00  0.00     2
 27 MAR   30 Floral Ini     328   0.35   6.7    0  0.0  0.00  0.00  0.00  0.00     3
  9 MAY   73 75% Silkin   10690   4.29  15.8    0  0.0  0.00  0.00  0.00  0.00     4
 20 MAY   84 Beg Gr Fil   12562   4.18  15.8    0  0.0  0.55  0.00  0.00  0.00     5
 24 JUN  119 End Gr Fil   19965   1.35  15.8    0  0.0  0.15  0.00  0.00  0.00     6
 25 JUN  120 Harvest      20024   1.12  15.8    0  0.0  0.00  0.00  0.00  0.00     6


*MAIN GROWTH AND DEVELOPMENT VARIABLES

@     VARIABLE                                         SIMULATED     MEASURED
      --------                                         ---------     --------
      Anthesis day (dap)                                      73          -99
      Physiological maturity day (dap)                       -99          -99
      Yield at harvest maturity (kg [dm]/ha)               10183          -99
      Number at maturity (no/m2)                            4961          -99
      Unit wt at maturity (g [dm]/unit)                   0.2053          -99
      Number at maturity (no/unit)                         583.7          -99
      Tops weight at maturity (kg [dm]/ha)                 20024          -99
      By-product produced (stalk) at maturity (kg[dm]/ha    9901          -99
      Leaf area index, maximum                              4.35          -99
      Harvest index at maturity                            0.509          -99
      Grain N at maturity (kg/ha)                              0          -99
      Tops N at maturity (kg/ha)                               0          -99
      Stem N at maturity (kg/ha)                               0          -99
      Grain N at maturity (%)                                0.0          -99
      Tops weight at anthesis (kg [dm]/ha)                 10242          -99
      Tops N at anthesis (kg/ha)                               0          -99
      Leaf number per stem at maturity                     15.76          -99
      Emergence day (dap)                                      9          -99


*ENVIRONMENTAL AND STRESS FACTORS

 |-----Development Phase------|--------------------------------------Environment--------------------------------------|-----------------Stress-----------------|
                              |---------------Average--------------|-----Cumulative-----|--------Count of days--------|          (0=Min, 1=Max Stress)         |
                         Time  Temp  Temp  Temp Solar Photop                Evapo    Pot TMIN TMIN TMAX TMAX TMAX RAIN|----Water----|---Nitrogen--|-Phosphorus-|
                         Span   Max   Min  Mean   Rad  [day]    CO2   Rain  Trans     ET   <    <    >    >    >    >   Photo         Photo         Photo
                         days    øC    øC    øC MJ/m2     hr    ppm     mm     mm     mm  0øC  2øC 30øC 32øC 34øC  0mm  synth Growth  synth Growth  synth Growth
----------------------------------------------------------------------------------------------------------------------------------------------------------------
 Emergence-End Juvenile    16  27.9  13.2  20.5  16.7  11.73  340.8   51.1   32.0   68.5    0    1    6    0    0    3  0.000  0.000  0.000  0.000  0.000  0.000
 End Juvenil-Floral Init    5  27.0  16.0  21.5  12.7  12.05  340.8   43.0   12.7   16.2    0    0    0    0    0    5  0.000  0.000  0.000  0.000  0.000  0.000
 Floral Init-End Lf Grow   43  27.1  14.0  20.5  18.0  12.76  340.9  258.2  167.3  177.5    0    0    7    1    0   12  0.000  0.000  0.000  0.000  0.000  0.000
 End Lf Grth-Beg Grn Fil   11  31.1  14.5  22.8  24.1  13.46  340.9    0.0   40.6   60.7    0    0    8    3    0    0  0.355  0.471  0.000  0.000  0.000  0.000
 Grain Filling Phase       35  32.6  20.1  26.4  20.0  13.80  341.0  256.2  149.9  172.7    0    0   31   26    6   16  0.142  0.171  0.000  0.000  0.000  0.000
   
 Planting to Harvest      120  29.0  15.5  22.3  18.3  12.86  340.9  623.3  413.8  525.3    0    2   53   30    6   38  0.074  0.093  0.000  0.000  0.000  0.000
----------------------------------------------------------------------------------------------------------------------------------------------------------------


*Resource Productivity
 Growing season length: 120 days 

 Precipitation during growing season       623.3 mm[rain]
   Dry Matter Productivity                  3.21 kg[DM]/m3[rain]          =   32.1 kg[DM]/ha per mm[rain]
   Yield Productivity                       1.63 kg[grain yield]/m3[rain] =   16.3 kg[yield]/ha per mm[rain]

 Evapotranspiration during growing season  413.8 mm[ET]
   Dry Matter Productivity                  4.84 kg[DM]/m3[ET]            =   48.4 kg[DM]/ha per mm[ET]
   Yield Productivity                       2.46 kg[grain yield]/m3[ET]   =   24.6 kg[yield]/ha per mm[ET]

 Transpiration during growing season       305.2 mm[EP]
   Dry Matter Productivity                  6.56 kg[DM]/m3[EP]            =   65.6 kg[DM]/ha per mm[EP]
   Yield Productivity                       3.34 kg[grain yield]/m3[EP]   =   33.4 kg[yield]/ha per mm[EP]

--------------------------------------------------------------------------------------------------------------

                     Maize YIELD :    10183 kg/ha    [Dry weight] 

**************************************************************************************************************
