
*DSSAT Cropping System Model Ver. 4.7.5.042 -develop  JAN 20, 2022 15:55:43
!                                                                                                                                                                                                                                      Root Dens. (cm/cm3) by soil depth (cm):
!                                                                                                                                                                                                                                       0-5    5-15   15-30   30-45   45-60   60-80  80-100 100-150 150-200
@YEAR DOY   DAS   DAP   L#SD   GSTD   LAID   LWAD   SWAD   GWAD   RWAD   VWAD   CWAD   G#AD   GWGD   HIAD   PWAD   P#AD   WSPD   WSGD   NSTD   EWSD  PST1A  PST2A   KSTD   LN%D   SH%D   HIPD   PWDD   PWTD     SLAD   CHTD   CWID   RDPD    RL1D    RL2D    RL3D    RL4D    RL5D    RL6D    RL7D    RL8D    RL9D   CDAD   LDAD   SDAD   SNW0C   SNW1C  DTTD
 1982 056    56     0    0.0      0   0.00      0      0      0      0      0      0      0    0.0  0.000      0      0  0.000  0.000  0.000  0.000  0.000  0.000  1.000   0.00   0.00   0.00      0      0      0.0   0.00   0.00   0.05    0.00    0.00    0.00    0.00    0.00    0.00    0.00    0.00    0.00      0      0      0       0       0 11.82
 1982 057    57     1    0.0      0   0.00      0      0      0      0      0      0      0    0.0  0.000      0      0  0.000  0.000  0.000  0.000  0.000  0.000  1.000   0.00   0.00   0.00      0      0      0.0   0.00   0.00   0.07    0.00    0.00    0.00    0.00    0.00    0.00    0.00    0.00    0.00      0      0      0       0       0 10.82
 1982 058    58     2    0.0      0   0.00      0      0      0      0      0      0      0    0.0  0.000      0      0  0.000  0.000  0.000  0.000  0.000  0.000  1.000   0.00   0.00   0.00      0      0      0.0   0.00   0.00   0.08    0.00    0.00    0.00    0.00    0.00    0.00    0.00    0.00    0.00      0      0      0       0       0  9.65
 1982 059    59     3    0.0      0   0.00      0      0      0      0      0      0      0    0.0  0.000      0      0  0.000  0.000  0.000  0.000  0.000  0.000  1.000   0.00   0.00   0.00      0      0      0.0   0.00   0.00   0.10    0.00    0.00    0.00    0.00    0.00    0.00    0.00    0.00    0.00      0      0      0       0       0 12.23
 1982 060    60     4    0.0      0   0.00      0      0      0      0      0      0      0    0.0  0.000      0      0  0.000  0.000  0.000  0.000  0.000  0.000  1.000   0.00   0.00   0.00      0      0      0.0   0.00   0.00   0.11    0.00    0.00    0.00    0.00    0.00    0.00    0.00    0.00    0.00      0      0      0       0       0  5.38
 1982 061    61     5    0.0      0   0.00      0      0      0      0      0      0      0    0.0  0.000      0      0  0.000  0.000  0.000  0.000  0.000  0.000  1.000   0.00   0.00   0.00      0      0      0.0   0.00   0.00   0.12    0.00    0.00    0.00    0.00    0.00    0.00    0.00    0.00    0.00      0      0      0       0       0  5.82
 1982 062    62     6    0.0      0   0.00      0      0      0      0      0      0      0    0.0  0.000      0      0  0.000  0.000  0.000  0.000  0.000  0.000  1.000   0.00   0.00   0.00      0      0      0.0   0.00   0.00   0.13    0.00    0.00    0.00    0.00    0.00    0.00    0.00    0.00    0.00      0      0      0       0       0  8.88
 1982 063    63     7    0.0      0   0.00      0      0      0      0      0      0      0    0.0  0.000      0      0  0.000  0.000  0.000  0.000  0.000  0.000  1.000   0.00   0.00   0.00      0      0      0.0   0.00   0.00   0.15    0.00    0.00    0.00    0.00    0.00    0.00    0.00    0.00    0.00      0      0      0       0       0 12.04
 1982 064    64     8    0.0      0   0.00      0      0      0      0      0      0      0    0.0  0.000      0      0  0.000  0.000  0.000  0.000  0.000  0.000  1.000   0.00   0.00   0.00      0      0      0.0   0.00   0.00   0.17    0.00    0.00    0.00    0.00    0.00    0.00    0.00    0.00    0.00      0      0      0       0       0 14.07
 1982 065    65     9    1.0      1   0.00     18     20      0     19     38     38      0    0.0  0.000      0      0  0.000  0.000  0.000  0.000  0.000  0.000  1.000   0.00   0.00   0.00      0      0     16.8   0.00   0.00   0.18    0.36    0.18    0.01    0.00    0.00    0.00    0.00    0.00    0.00      0      0      0       0       0 12.83
 1982 066    66    10    1.0      1   0.01     19     20      0     19     39     39      0    0.0  0.000      0      0  0.000  0.000  0.000  0.000  0.000  0.000  1.000   0.00   0.00   0.00      0      0     31.1   0.00   0.00   0.19    0.36    0.18    0.01    0.00    0.00    0.00    0.00    0.00    0.00      0      0      0       0       0 11.93
 1982 067    67    11    1.0      1   0.01     19     21      0     19     40     40      0    0.0  0.000      0      0  0.000  0.000  0.000  0.000  0.000  0.000  1.000   0.00   0.00   0.00      0      0     36.9   0.00   0.00   0.19    0.36    0.18    0.01    0.00    0.00    0.00    0.00    0.00    0.00      0      0      0       0       0  2.79
 1982 068    68    12    1.0      1   0.01     20     21      0     20     41     41      0    0.0  0.000      0      0  0.000  0.000  0.000  0.000  0.000  0.000  1.000   0.00   0.00   0.00      0      0     45.0   0.00   0.00   0.20    0.36    0.18    0.01    0.00    0.00    0.00    0.00    0.00    0.00      0      0      0       0       0  6.24
 1982 069    69    13    2.0      1   0.01     20     22      0     21     43     43      0    0.0  0.000      0      0  0.000  0.000  0.000  0.000  0.000  0.000  1.000   0.00   0.00   0.00      0      0     48.3   0.00   0.00   0.21    0.36    0.19    0.02    0.00    0.00    0.00    0.00    0.00    0.00      0      0      0       0       0 11.03
 1982 070    70    14    2.0      1   0.01     20     24      0     21     44     44      0    0.0  0.000      0      0  0.000  0.000  0.000  0.000  0.000  0.000  1.000   0.00   0.00   0.00      0      0     50.6   0.00   0.00   0.22    0.36    0.19    0.02    0.00    0.00    0.00    0.00    0.00    0.00      0      0      0       0       0 11.90
 1982 071    71    15    2.0      1   0.01     22     25      0     23     47     47      0    0.0  0.000      0      0  0.000  0.000  0.000  0.000  0.000  0.000  1.000   0.00   0.00   0.00      0      0     62.6   0.00   0.00   0.23    0.37    0.19    0.02    0.00    0.00    0.00    0.00    0.00    0.00      0      0      0       0       0 13.48
 1982 072    72    16    2.0      1   0.02     25     26      0     24     51     51      0    0.0  0.000      0      0  0.000  0.000  0.000  0.000  0.000  0.000  1.000   0.00   0.00   0.00      0      0     90.0   0.00   0.00   0.24    0.37    0.20    0.02    0.00    0.00    0.00    0.00    0.00    0.00      0      0      0       0       0 13.90
 1982 073    73    17    3.0      1   0.03     27     29      0     27     56     56      0    0.0  0.000      0      0  0.000  0.000  0.000  0.000  0.000  0.000  1.000   0.00   0.00   0.00      0      0    103.1   0.00   0.00   0.25    0.38    0.21    0.03    0.00    0.00    0.00    0.00    0.00    0.00      0      0      0       0       0 16.85
 1982 074    74    18    3.0      1   0.03     29     33      0     30     62     62      0    0.0  0.000      0      0  0.000  0.000  0.000  0.000  0.000  0.000  1.000   0.00   0.00   0.00      0      0    112.8   0.00   0.00   0.27    0.39    0.22    0.03    0.00    0.00    0.00    0.00    0.00    0.00      0      0      0       0       0 16.28
 1982 075    75    19    3.0      1   0.05     34     35      0     33     70     70      0    0.0  0.000      0      0  0.000  0.000  0.000  0.000  0.000  0.000  1.000   0.00   0.00   0.00      0      0    135.7   0.00   0.00   0.28    0.39    0.23    0.05    0.00    0.00    0.00    0.00    0.00    0.00      0      0      0       0       0 15.90
 1982 076    76    20    4.0      1   0.06     42     39      0     39     81     81      0    0.0  0.000      0      0  0.000  0.000  0.000  0.000  0.000  0.000  1.000   0.00   0.00   0.00      0      0    151.9   0.00   0.00   0.29    0.39    0.26    0.06    0.00    0.00    0.00    0.00    0.00    0.00      0      0      0       0       0 16.30
 1982 077    77    21    4.0      1   0.08     47     46      0     45     93     93      0    0.0  0.000      0      0  0.000  0.000  0.000  0.000  0.000  0.000  1.000   0.00   0.00   0.00      0      0    160.4   0.00   0.00   0.31    0.39    0.28    0.09    0.00    0.00    0.00    0.00    0.00    0.00      0      0      0       0       0 17.45
 1982 078    78    22    4.0      1   0.09     56     53      0     52    108    108      0    0.0  0.000      0      0  0.000  0.000  0.000  0.000  0.000  0.000  1.000   0.00   0.00   0.00      0      0    170.1   0.00   0.00   0.32    0.40    0.31    0.11    0.00    0.00    0.00    0.00    0.00    0.00      0      0      0       0       0 17.26
 1982 079    79    23    5.0      1   0.13     70     59      0     62    129    129      0    0.0  0.000      0      0  0.000  0.000  0.000  0.000  0.000  0.000  1.000   0.00   0.00   0.00      0      0    179.8   0.00   0.00   0.33    0.40    0.35    0.14    0.01    0.00    0.00    0.00    0.00    0.00      0      0      0       0       0 17.56
 1982 080    80    24    5.0      1   0.15     81     69      0     71    149    149      0    0.0  0.000      0      0  0.000  0.000  0.000  0.000  0.000  0.000  1.000   0.00   0.00   0.00      0      0    188.0   0.00   0.00   0.35    0.40    0.38    0.17    0.01    0.00    0.00    0.00    0.00    0.00      0      0      0       0       0 15.51
 1982 081    81    25    5.0      2   0.18     91     77      0     80    168    168      0    0.0  0.000      0      0  0.000  0.000  0.000  0.000  0.000  0.000  1.000   0.00   0.00   0.00      0      0    196.8   0.00   0.00   0.38    0.39    0.41    0.20    0.03    0.00    0.00    0.00    0.00    0.00      0      0      0       0       0 15.08
 1982 082    82    26    6.0      2   0.21    104     91      0     93    195    195      0    0.0  0.000      0      0  0.000  0.000  0.000  0.000  0.000  0.000  1.000   0.00   0.00   0.00      0      0    200.1   0.00   0.00   0.40    0.44    0.45    0.23    0.04    0.00    0.00    0.00    0.00    0.00      0      0      0       0       0 13.57
 1982 083    83    27    6.0      2   0.24    113     94      0     98    207    207      0    0.0  0.000      0      0  0.000  0.000  0.000  0.000  0.000  0.000  1.000   0.00   0.00   0.00      0      0    214.9   0.00   0.00   0.41    0.45    0.46    0.24    0.05    0.00    0.00    0.00    0.00    0.00      0      0      0       0       0 13.10
 1982 084    84    28    6.0      2   0.29    136    110      0    117    246    246      0    0.0  0.000      0      0  0.000  0.000  0.000  0.000  0.000  0.000  1.000   0.00   0.00   0.00      0      0    210.7   0.00   0.00   0.43    0.51    0.51    0.28    0.07    0.00    0.00    0.00    0.00    0.00      0      0      0       0       0 14.73
 1982 085    85    29    7.0      2   0.33    161    131      0    139    292    292      0    0.0  0.000      0      0  0.000  0.000  0.000  0.000  0.000  0.000  1.000   0.00   0.00   0.00      0      0    204.0   0.00   0.00   0.45    0.58    0.57    0.33    0.11    0.00    0.00    0.00    0.00    0.00      0      0      0       0       0 13.49
 1982 086    86    30    7.0      3   0.35    171    156      0    156    328    328      0    0.0  0.000      0      0  0.000  0.000  0.000  0.000  0.000  0.000  1.000   0.00   0.00   0.00      0      0    202.7   0.00   0.00   0.46    0.63    0.61    0.36    0.13    0.00    0.00    0.00    0.00    0.00      0      0      0       0       0  6.65
 1982 087    87    31    7.0      3   0.36    175    166      0    162    342    342      0    0.0  0.000      0      0  0.000  0.000  0.000  0.000  0.000  0.000  1.000   0.00   0.00   0.00      0      0    203.3   0.00   0.00   0.47    0.64    0.63    0.38    0.14    0.00    0.00    0.00    0.00    0.00      0      0      0       0       0  4.23
 1982 088    88    32    7.0      3   0.39    189    189      0    179    378    378      0    0.0  0.000      0      0  0.000  0.000  0.000  0.000  0.000  0.000  1.000   0.00   0.00   0.00      0      0    204.3   0.00   0.00   0.48    0.69    0.67    0.41    0.17    0.01    0.00    0.00    0.00    0.00      0      0      0       0       0  7.88
 1982 089    89    33    7.0      3   0.45    231    216      0    210    447    447      0    0.0  0.000      0      0  0.000  0.000  0.000  0.000  0.000  0.000  1.000   0.00   0.00   0.00      0      0    195.4   0.00   0.00   0.50    0.78    0.74    0.47    0.21    0.02    0.00    0.00    0.00    0.00      0      0      0       0       0 12.86
 1982 090    90    34    8.0      3   0.53    271    243      0    240    514    514      0    0.0  0.000      0      0  0.000  0.000  0.000  0.000  0.000  0.000  1.000   0.00   0.00   0.00      0      0    194.2   0.00   0.00   0.52    0.86    0.81    0.53    0.25    0.04    0.00    0.00    0.00    0.00      0      0      0       0       0 13.32
 1982 091    91    35    8.0      3   0.62    324    282      0    279    606    606      0    0.0  0.000      0      0  0.000  0.000  0.000  0.000  0.000  0.000  1.000   0.00   0.00   0.00      0      0    189.8   0.00   0.00   0.54    0.97    0.90    0.60    0.31    0.07    0.00    0.00    0.00    0.00      0      0      0       0       0 15.27
 1982 092    92    36    8.0      3   0.72    387    327      0    324    714    714      0    0.0  0.000      0      0  0.000  0.000  0.000  0.000  0.000  0.000  1.000   0.00   0.00   0.00      0      0    186.6   0.00   0.00   0.56    1.09    1.00    0.69    0.37    0.12    0.00    0.00    0.00    0.00      0      0      0       0       0 15.31
 1982 093    93    37    8.0      3   0.84    433    363      0    356    796    796      0    0.0  0.000      0      0  0.000  0.000  0.000  0.000  0.000  0.000  1.000   0.00   0.00   0.00      0      0    194.9   0.00   0.00   0.58    1.17    1.07    0.74    0.41    0.15    0.00    0.00    0.00    0.00      0      0      0       0       0 15.76
 1982 094    94    38    9.0      3   0.94    499    427      0    406    926    926      0    0.0  0.000      0      0  0.000  0.000  0.000  0.000  0.000  0.000  1.000   0.00   0.00   0.00      0      0    188.7   0.00   0.00   0.60    1.29    1.17    0.83    0.47    0.22    0.00    0.00    0.00    0.00      0      0      0       0       0 12.80
 1982 095    95    39    9.0      3   1.06    567    498      0    458   1065   1065      0    0.0  0.000      0      0  0.000  0.000  0.000  0.000  0.000  0.000  1.000   0.00   0.00   0.00      0      0    187.2   0.00   0.00   0.62    1.37    1.29    0.92    0.54    0.29    0.00    0.00    0.00    0.00      0      0      0       0       0 13.66
 1982 096    96    40    9.0      3   1.19    648    583      0    519   1231   1231      0    0.0  0.000      0      0  0.000  0.000  0.000  0.000  0.000  0.000  1.000   0.00   0.00   0.00      0      0    183.7   0.00   0.00   0.64    1.39    1.42    1.04    0.62    0.37    0.01    0.00    0.00    0.00      0      0      0       0       0 14.28
 1982 097    97    41    9.0      3   1.25    700    677      0    570   1378   1378      0    0.0  0.000      0      0  0.000  0.000  0.000  0.000  0.000  0.000  1.000   0.00   0.00   0.00      0      0    178.3   0.00   0.00   0.65    1.39    1.54    1.13    0.69    0.44    0.03    0.00    0.00    0.00      0      0      0       0       0  8.16
 1982 098    98    42   10.0      3   1.32    709    680      0    571   1389   1389      0    0.0  0.000      0      0  0.000  0.000  0.000  0.000  0.000  0.000  1.000   0.00   0.00   0.00      0      0    185.9   0.00   0.00   0.65    1.39    1.54    1.14    0.69    0.44    0.03    0.00    0.00    0.00      0      0      0       0       0  7.91
 1982 099    99    43   10.0      3   1.45    755    727      0    601   1482   1482      0    0.0  0.000      0      0  0.000  0.000  0.000  0.000  0.000  0.000  1.000   0.00   0.00   0.00      0      0    191.6   0.00   0.00   0.67    1.46    1.60    1.18    0.72    0.48    0.04    0.00    0.00    0.00      0      0      0       0       0 12.39
 1982 100   100    44   10.0      3   1.53    781    751      0    615   1532   1532      0    0.0  0.000      0      0  0.000  0.000  0.000  0.000  0.000  0.000  1.000   0.00   0.00   0.00      0      0    195.6   0.00   0.00   0.68    1.49    1.62    1.21    0.74    0.50    0.04    0.00    0.00    0.00      0      0      0       0       0  9.21
 1982 101   101    45   10.0      3   1.59    837    869      0    671   1705   1705      0    0.0  0.000      0      0  0.000  0.000  0.000  0.000  0.000  0.000  1.000   0.00   0.00   0.00      0      0    190.0   0.00   0.00   0.69    1.62    1.73    1.29    0.80    0.56    0.07    0.00    0.00    0.00      0      0      0       0       0  7.91
 1982 102   102    46   10.0      3   1.68    911   1005      0    737   1916   1916      0    0.0  0.000      0      0  0.000  0.000  0.000  0.000  0.000  0.000  1.000   0.00   0.00   0.00      0      0    184.3   0.00   0.00   0.70    1.77    1.86    1.40    0.88    0.64    0.10    0.00    0.00    0.00      0      0      0       0       0  9.66
 1982 103   103    47   11.0      3   1.82   1002   1150      0    809   2152   2152      0    0.0  0.000      0      0  0.000  0.000  0.000  0.000  0.000  0.000  1.000   0.00   0.00   0.00      0      0    182.1   0.00   0.00   0.72    1.93    1.99    1.51    0.96    0.72    0.13    0.00    0.00    0.00      0      0      0       0       0 13.52
 1982 104   104    48   11.0      3   1.97   1091   1306      0    880   2396   2396      0    0.0  0.000      0      0  0.000  0.000  0.000  0.000  0.000  0.000  1.000   0.00   0.00   0.00      0      0    180.4   0.00   0.00   0.74    2.09    2.12    1.62    1.04    0.80    0.18    0.00    0.00    0.00      0      0      0       0       0 13.10
 1982 105   105    49   11.0      3   2.13   1172   1446      0    942   2618   2618      0    0.0  0.000      0      0  0.000  0.000  0.000  0.000  0.000  0.000  1.000   0.00   0.00   0.00      0      0    181.6   0.00   0.00   0.75    2.22    2.23    1.71    1.10    0.87    0.22    0.00    0.00    0.00      0      0      0       0       0 13.65
 1982 106   106    50   12.0      3   2.31   1271   1618      0   1016   2890   2890      0    0.0  0.000      0      0  0.000  0.000  0.000  0.000  0.000  0.000  1.000   0.00   0.00   0.00      0      0    182.1   0.00   0.00   0.77    2.38    2.37    1.82    1.18    0.94    0.27    0.00    0.00    0.00      0      0      0       0       0 16.20
 1982 107   107    51   12.0      3   2.49   1368   1812      0   1090   3180   3180      0    0.0  0.000      0      0  0.000  0.000  0.000  0.000  0.000  0.000  1.000   0.00   0.00   0.00      0      0    182.2   0.00   0.00   0.79    2.53    2.50    1.93    1.26    1.02    0.33    0.00    0.00    0.00      0      0      0       0       0 17.25
 1982 108   108    52   12.0      3   2.67   1461   1999      0   1158   3460   3460      0    0.0  0.000      0      0  0.000  0.000  0.000  0.000  0.000  0.000  1.000   0.00   0.00   0.00      0      0    182.7   0.00   0.00   0.81    2.67    2.61    2.02    1.33    1.09    0.39    0.00    0.00    0.00      0      0      0       0       0 16.45
 1982 109   109    53   13.0      3   2.81   1553   2223      0   1231   3776   3776      0    0.0  0.000      0      0  0.000  0.000  0.000  0.000  0.000  0.000  1.000   0.00   0.00   0.00      0      0    181.0   0.00   0.00   0.83    2.82    2.74    2.13    1.40    1.17    0.45    0.01    0.00    0.00      0      0      0       0       0 14.50
 1982 110   110    54   13.0      3   2.97   1645   2453      0   1303   4097   4100      0    0.0  0.000      3      0  0.000  0.000  0.000  0.000  0.000  0.000  1.000   0.00   0.00   0.00      0      3    180.8   0.00   0.00   0.85    2.96    2.86    2.22    1.47    1.24    0.51    0.02    0.00    0.00      0      0      0       0       0 17.00
 1982 111   111    55   13.0      3   3.14   1743   2724      0   1382   4467   4476      0    0.0  0.000      9      0  0.000  0.000  0.000  0.000  0.000  0.000  1.000   0.00   0.00   0.00      0      9    180.1   0.00   0.00   0.87    3.12    2.99    2.33    1.55    1.32    0.57    0.05    0.00    0.00      0      0      0       0       0 16.70
 1982 112   112    56   14.0      3   3.30   1838   2999      0   1457   4837   4853      0    0.0  0.000     16      0  0.000  0.000  0.000  0.000  0.000  0.000  1.000   0.00   0.00   0.00      0     16    179.7   0.00   0.00   0.89    3.26    3.11    2.43    1.62    1.39    0.62    0.08    0.00    0.00      0      0      0       0       0 16.75
 1982 113   113    57   14.0      3   3.44   1883   3117      0   1484   5000   5019      0    0.0  0.000     18      0  0.000  0.000  0.000  0.000  0.000  0.000  1.000   0.00   0.00   0.00      0     18    182.5   0.00   0.00   0.91    3.31    3.15    2.46    1.65    1.42    0.65    0.09    0.00    0.00      0      0      0       0       0 15.35
 1982 114   114    58   14.0      3   3.52   1915   3232      0   1506   5148   5168      0    0.0  0.000     20      0  0.000  0.000  0.000  0.000  0.000  0.000  1.000   0.00   0.00   0.00      0     20    183.5   0.00   0.00   0.93    3.35    3.18    2.49    1.67    1.44    0.66    0.10    0.00    0.00      0      0      0       0       0 10.05
 1982 115   115    59   14.0      3   3.62   1953   3350      0   1529   5303   5326      0    0.0  0.000     23      0  0.000  0.000  0.000  0.000  0.000  0.000  1.000   0.00   0.00   0.00      0     23    185.3   0.00   0.00   0.94    3.39    3.21    2.52    1.69    1.46    0.68    0.12    0.00    0.00      0      0      0       0       0 13.15
 1982 116   116    60   15.0      3   3.73   2000   3514      0   1561   5514   5544      0    0.0  0.000     30      0  0.000  0.000  0.000  0.000  0.000  0.000  1.000   0.00   0.00   0.01      0     30    186.6   0.00   0.00   0.96    3.45    3.26    2.56    1.72    1.49    0.71    0.14    0.00    0.00      0      0      0       0       0 14.50
 1982 117   117    61   15.0      3   3.82   2060   3835      0   1624   5895   5956      0    0.0  0.000     61      0  0.000  0.000  0.000  0.000  0.000  0.000  1.000   0.00   0.00   0.01      0     61    185.2   0.00   0.00   0.98    3.56    3.35    2.63    1.77    1.55    0.75    0.18    0.00    0.00      0      0      0       0       0 14.50
 1982 118   118    62   15.0      3   3.89   2116   4152      0   1684   6268   6369      0    0.0  0.000    101      0  0.000  0.000  0.000  0.000  0.000  0.000  1.000   0.00   0.00   0.02      0    101    183.7   0.00   0.00   0.99    3.66    3.44    2.71    1.82    1.60    0.80    0.22    0.00    0.00      0      0      0       0       0 13.10
 1982 119   119    63   15.0      3   3.96   2164   4418      0   1730   6582   6717      0    0.0  0.000    135      0  0.000  0.000  0.000  0.000  0.000  0.000  1.000   0.00   0.00   0.02      0    135    183.1   0.00   0.00   1.01    3.74    3.51    2.76    1.86    1.64    0.83    0.26    0.00    0.00      0      0      0       0       0 12.80
 1982 120   120    64   16.0      3   4.04   2210   4706      0   1779   6916   7104      0    0.0  0.000    188      0  0.000  0.000  0.000  0.000  0.000  0.000  1.000   0.00   0.00   0.03      0    188    182.6   0.00   0.00   1.02    3.83    3.58    2.82    1.90    1.68    0.86    0.30    0.00    0.00      0      0      0       0       0 13.15
 1982 121   121    65   16.0      3   4.10   2247   4967      0   1820   7214   7457      0    0.0  0.000    242      0  0.000  0.000  0.000  0.000  0.000  0.000  1.000   0.00   0.00   0.03      0    242    182.7   0.00   0.00   1.02    3.90    3.63    2.87    1.94    1.72    0.89    0.33    0.00    0.00      0      0      0       0       0 13.15
 1982 122   122    66   16.0      3   4.18   2286   5235      0   1862   7520   7841      0    0.0  0.000    320      0  0.000  0.000  0.000  0.000  0.000  0.000  1.000   0.00   0.00   0.04      0    320    182.9   0.00   0.00   1.03    3.97    3.69    2.92    1.98    1.76    0.92    0.36    0.00    0.00      0      0      0       0       0 13.40
 1982 123   123    67   16.0      3   4.25   2322   5500      0   1904   7822   8249      0    0.0  0.000    427      0  0.000  0.000  0.000  0.000  0.000  0.000  1.000   0.00   0.00   0.05      0    427    183.2   0.00   0.00   1.04    4.00    3.75    2.97    2.01    1.79    0.95    0.40    0.00    0.00      0      0      0       0       0 13.95
 1982 124   124    68   16.0      3   4.30   2350   5760      0   1945   8111   8672      0    0.0  0.000    561      0  0.000  0.000  0.000  0.000  0.000  0.000  1.000   0.00   0.00   0.06      0    561    183.1   0.00   0.00   1.04    4.00    3.81    3.02    2.05    1.83    0.98    0.43    0.00    0.00      0      0      0       0       0 12.85
 1982 125   125    69   16.0      3   4.34   2372   6006      0   1982   8378   9097      0    0.0  0.000    720      0  0.000  0.000  0.000  0.000  0.000  0.000  1.000   0.00   0.00   0.08      0    720    182.9   0.00   0.00   1.05    4.00    3.86    3.06    2.08    1.86    1.01    0.46    0.00    0.00      0      0      0       0       0 13.35
 1982 126   126    70   16.0      3   4.35   2383   6234      0   2012   8617   9488      0    0.0  0.000    870      0  0.000  0.000  0.000  0.000  0.000  0.000  1.000   0.00   0.00   0.09      0    870    182.5   0.00   0.00   1.05    4.00    3.91    3.10    2.10    1.89    1.03    0.49    0.00    0.00      0      0      0       0       0 12.00
 1982 127   127    71   16.0      3   4.34   2389   6453      0   2043   8842   9903      0    0.0  0.000   1061      0  0.000  0.000  0.000  0.000  0.000  0.000  1.000   0.00   0.00   0.11      0   1061    181.8   0.00   0.00   1.06    4.00    3.95    3.13    2.13    1.92    1.05    0.51    0.00    0.00      0      0      0       0       0 12.30
 1982 128   128    72   16.0      3   4.32   2390   6648      0   2062   9038  10242      0    0.0  0.000   1203      0  0.000  0.000  0.000  0.000  0.000  0.000  1.000   0.00   0.00   0.12      0   1203    180.6   0.00   0.00   1.07    4.00    3.97    3.15    2.15    1.93    1.07    0.53    0.00    0.00      0      0      0       0       0 15.60
 1982 129   129    73   16.0      4   4.29   2390   6821      0   2091   9211  10690      0    0.0  0.000   1479      0  0.000  0.000  0.000  0.000  0.000  0.000  1.000   0.00   0.00   0.14      0   1479    179.6   0.00   0.00   1.08    4.00    3.99    3.18    2.17    1.96    1.09    0.56    0.00    0.00      0      0      0       0       0 14.20
 1982 130   130    74   16.0      4   4.29   2390   6986      0   2112   9375  11106      0    0.0  0.000   1730      0  0.000  0.000  0.000  0.000  0.000  0.000  1.000   0.00   0.00   0.16      0   1730    179.5   0.00   0.00   1.08    4.00    4.00    3.20    2.19    1.99    1.11    0.58    0.00    0.00      0      0      0       0       0 13.35
 1982 131   131    75   16.0      4   4.29   2390   7140      0   2129   9530  11510      0    0.0  0.000   1980      0  0.000  0.085  0.000  0.000  0.000  0.000  1.000   0.00   0.00   0.17      0   1980    179.4   0.00   0.00   1.09    3.99    4.00    3.21    2.21    2.00    1.13    0.60    0.00    0.00      0      0      0       0       0 12.55
 1982 132   132    76   16.0      4   4.29   2390   7286      0   2143   9676  11902      0    0.0  0.000   2225      0  0.000  0.158  0.000  0.000  0.000  0.000  1.000   0.00   0.00   0.19      0   2225    179.4   0.00   0.00   1.09    3.97    4.00    3.22    2.22    2.02    1.15    0.62    0.00    0.00      0      0      0       0       0 14.20
 1982 133   133    77   16.0      4   4.27   2390   7413      0   2186   9803  12128      0    0.0  0.000   2324      0  0.213  0.476  0.000  0.000  0.000  0.000  1.000   0.00   0.00   0.19      0   2324    178.8   0.00   0.00   1.10    3.95    4.00    3.25    2.26    2.06    1.21    0.68    0.00    0.00      0      0      0       0       0 13.95
 1982 134   134    78   16.0      4   4.25   2390   7481      0   2236   9871  12217      0    0.0  0.000   2346      0  0.518  0.679  0.000  0.000  0.000  0.000  1.000   0.00   0.00   0.19      0   2346    177.9   0.00   0.00   1.11    3.93    4.00    3.29    2.30    2.11    1.28    0.76    0.00    0.00      0      0      0       0       0 13.95
 1982 135   135    79   16.0      4   4.24   2390   7542      0   2281   9932  12295      0    0.0  0.000   2363      0  0.567  0.712  0.000  0.000  0.000  0.000  1.000   0.00   0.00   0.19      0   2363    177.5   0.00   0.00   1.12    3.91    4.00    3.31    2.34    2.15    1.34    0.83    0.00    0.00      0      0      0       0       0 15.90
 1982 136   136    80   16.0      4   4.23   2390   7593      0   2317   9983  12357      0    0.0  0.000   2375      0  0.609  0.740  0.000  0.000  0.000  0.000  1.000   0.00   0.00   0.19      0   2375    177.0   0.00   0.00   1.12    3.89    4.00    3.33    2.36    2.19    1.38    0.90    0.01    0.00      0      0      0       0       0 16.45
 1982 137   137    81   16.0      4   4.21   2390   7637      0   2347  10027  12410      0    0.0  0.000   2383      0  0.647  0.765  0.000  0.000  0.000  0.000  1.000   0.00   0.00   0.19      0   2383    176.1   0.00   0.00   1.13    3.88    3.99    3.34    2.38    2.21    1.43    0.96    0.01    0.00      0      0      0       0       0 16.20
 1982 138   138    82   16.0      4   4.18   2390   7679      0   2373  10069  12459      0    0.0  0.000   2390      0  0.656  0.771  0.000  0.000  0.000  0.000  1.000   0.00   0.00   0.19      0   2390    174.8   0.00   0.00   1.14    3.86    3.97    3.34    2.40    2.24    1.47    1.03    0.01    0.00      0      0      0       0       0 15.90
 1982 139   139    83   16.0      4   4.18   2390   7716      0   2396  10106  12502      0    0.0  0.000   2396      0  0.692  0.795  0.000  0.000  0.000  0.000  1.000   0.00   0.00   0.19      0   2396    174.7   0.00   0.00   1.14    3.84    3.95    3.34    2.42    2.26    1.50    1.08    0.01    0.00      0      0      0       0       0 15.65
 1982 140   140    84   16.0      5   4.18   2366   7562    238   2384   9928  12562   5078    4.7  0.019   2634      8  0.729  0.820  0.000  0.000  0.000  0.000  1.000   0.00   9.04   0.21      0   2634    176.5   0.00   0.00   1.14    3.84    3.95    3.34    2.42    2.26    1.50    1.08    0.01    0.00      0      0      0       0       0 15.90
 1982 141   141    85   16.0      5   4.16   2342   7410    450   2372   9753  12599   5078    8.9  0.036   2846      8  0.756  0.838  0.000  0.000  0.000  0.000  1.000   0.00  15.81   0.23      0   2846    177.8   0.00   0.00   1.14    3.84    3.95    3.34    2.42    2.26    1.50    1.08    0.01    0.00      0      0      0       0       0 16.15
 1982 142   142    86   16.0      5   4.14   2319   7262    664   2360   9581  12641   5078   13.1  0.053   3060      8  0.711  0.808  0.000  0.000  0.000  0.000  1.000   0.00  21.69   0.24      0   3060    178.7   0.00   0.00   1.14    3.84    3.95    3.34    2.42    2.26    1.50    1.08    0.01    0.00      0      0      0       0       0 16.75
 1982 143   143    87   16.0      5   4.11   2296   7117    872   2348   9413  12681   5078   17.2  0.069   3268      8  0.655  0.771  0.000  0.000  0.000  0.000  1.000   0.00  26.69   0.26      0   3268    178.9   0.00   0.00   1.14    3.84    3.95    3.34    2.42    2.26    1.50    1.08    0.01    0.00      0      0      0       0       0 18.65
 1982 144   144    88   16.0      5   4.07   2296   7085   1294   2337   9380  13070   5078   25.5  0.099   3690      8  0.000  0.000  0.000  0.000  0.000  0.000  1.000   0.00  35.07   0.28      0   3690    177.1   0.00   0.00   1.14    3.84    3.95    3.34    2.42    2.26    1.50    1.08    0.01    0.00      0      0      0       0       0 17.85
 1982 145   145    89   16.0      5   4.02   2296   7036   1716   2325   9332  13443   5078   33.8  0.128   4112      8  0.000  0.000  0.000  0.000  0.000  0.000  1.000   0.00  41.73   0.31      0   4112    175.1   0.00   0.00   1.14    3.84    3.95    3.34    2.42    2.26    1.50    1.08    0.01    0.00      0      0      0       0       0 18.40
 1982 146   146    90   16.0      5   4.01   2295   6895   2137   2313   9190  13724   5078   42.1  0.156   4533      8  0.000  0.000  0.000  0.000  0.000  0.000  1.000   0.00  47.15   0.33      0   4533    174.7   0.00   0.00   1.14    3.84    3.95    3.34    2.42    2.26    1.50    1.08    0.01    0.00      0      0      0       0       0 18.15
 1982 147   147    91   16.0      5   4.00   2295   6805   2559   2302   9101  14056   5078   50.4  0.182   4955      8  0.000  0.000  0.000  0.000  0.000  0.000  1.000   0.00  51.64   0.35      0   4955    174.3   0.00   0.00   1.14    3.84    3.95    3.34    2.42    2.26    1.50    1.08    0.01    0.00      0      0      0       0       0 18.65
 1982 148   148    92   16.0      5   3.98   2295   6769   2981   2290   9064  14441   5078   58.7  0.206   5377      8  0.000  0.000  0.000  0.000  0.000  0.000  1.000   0.00  55.44   0.37      0   5377    173.4   0.00   0.00   1.14    3.84    3.95    3.34    2.42    2.26    1.50    1.08    0.01    0.00      0      0      0       0       0 18.95
 1982 149   149    93   16.0      5   3.94   2295   6686   3402   2279   8981  14779   5078   67.0  0.230   5798      8  0.000  0.000  0.000  0.000  0.000  0.000  1.000   0.00  58.68   0.39      0   5798    171.8   0.00   0.00   1.14    3.84    3.95    3.34    2.42    2.26    1.50    1.08    0.01    0.00      0      0      0       0       0 20.27
 1982 150   150    94   16.0      5   3.89   2272   6552   3681   2267   8824  14901   5078   72.5  0.247   6077      8  0.000  0.000  0.000  0.000  0.000  0.000  1.000   0.00  60.57   0.41      0   6077    171.2   0.00   0.00   1.14    3.84    3.95    3.34    2.42    2.26    1.50    1.08    0.01    0.00      0      0      0       0       0 19.50
 1982 151   151    95   16.0      5   3.83   2249   6421   4046   2256   8671  15113   5078   79.7  0.268   6442      8  0.000  0.000  0.000  0.000  0.000  0.000  1.000   0.00  62.81   0.43      0   6442    170.1   0.00   0.00   1.14    3.84    3.95    3.34    2.42    2.26    1.50    1.08    0.01    0.00      0      0      0       0       0 17.30
 1982 152   152    96   16.0      5   3.76   2249   6366   4468   2245   8615  15479   5078   88.0  0.289   6864      8  0.000  0.000  0.000  0.000  0.000  0.000  1.000   0.00  65.09   0.44      0   6864    167.2   0.00   0.00   1.14    3.84    3.95    3.34    2.42    2.26    1.50    1.08    0.01    0.00      0      0      0       0       0 18.10
 1982 153   153    97   16.0      5   3.71   2249   6347   4890   2234   8596  15882   5078   96.3  0.308   7286      8  0.000  0.000  0.000  0.000  0.000  0.000  1.000   0.00  67.11   0.46      0   7286    164.7   0.00   0.00   1.14    3.84    3.95    3.34    2.42    2.26    1.50    1.08    0.01    0.00      0      0      0       0       0 18.65
 1982 154   154    98   16.0      5   3.65   2236   6220   5311   2222   8456  16163   5078  104.6  0.329   7707      8  0.000  0.000  0.000  0.000  0.000  0.000  1.000   0.00  68.91   0.48      0   7707    163.3   0.00   0.00   1.14    3.84    3.95    3.34    2.42    2.26    1.50    1.08    0.01    0.00      0      0      0       0       0 20.05
 1982 155   155    99   16.0      5   3.60   2236   6159   5733   2211   8395  16524   5078  112.9  0.347   8129      8  0.000  0.000  0.000  0.000  0.000  0.000  1.000   0.00  70.52   0.49      0   8129    160.8   0.00   0.00   1.14    3.84    3.95    3.34    2.42    2.26    1.50    1.08    0.01    0.00      0      0      0       0       0 19.75
 1982 156   156   100   16.0      5   3.54   2236   6102   6155   2200   8337  16888   5078  121.2  0.364   8551      8  0.000  0.000  0.000  0.000  0.000  0.000  1.000   0.00  71.98   0.51      0   8551    158.4   0.00   0.00   1.14    3.84    3.95    3.34    2.42    2.26    1.50    1.08    0.01    0.00      0      0      0       0       0 18.10
 1982 157   157   101   16.0      5   3.46   2236   6036   6576   2189   8272  17244   5078  129.5  0.381   8972      8  0.000  0.000  0.000  0.000  0.000  0.000  1.000   0.00  73.30   0.52      0   8972    154.9   0.00   0.00   1.14    3.84    3.95    3.34    2.42    2.26    1.50    1.08    0.01    0.00      0      0      0       0       0 18.32
 1982 158   158   102   16.0      5   3.38   2236   5957   6998   2178   8192  17586   5078  137.8  0.398   9394      8  0.000  0.000  0.000  0.000  0.000  0.000  1.000   0.00  74.49   0.53      0   9394    151.2   0.00   0.00   1.14    3.84    3.95    3.34    2.42    2.26    1.50    1.08    0.01    0.00      0      0      0       0       0 18.10
 1982 159   159   103   16.0      5   3.30   2236   5862   7420   2167   8098  17913   5078  146.1  0.414   9816      8  0.000  0.000  0.000  0.000  0.000  0.000  1.000   0.00  75.59   0.55      0   9816    147.7   0.00   0.00   1.14    3.84    3.95    3.34    2.42    2.26    1.50    1.08    0.01    0.00      0      0      0       0       0 17.77
 1982 160   160   104   16.0      5   3.23   2213   5745   7706   2157   7958  18060   5078  151.7  0.427  10102      8  0.296  0.531  0.000  0.000  0.000  0.000  1.000   0.00  76.28   0.56      0  10102    146.0   0.00   0.00   1.14    3.84    3.95    3.34    2.42    2.26    1.50    1.08    0.01    0.00      0      0      0       0       0 18.87
 1982 161   161   105   16.0      5   3.15   2191   5630   7890   2146   7821  18107   5078  155.4  0.436  10286      8  0.607  0.738  0.000  0.000  0.000  0.000  1.000   0.00  76.71   0.57      0  10286    143.7   0.00   0.00   1.14    3.84    3.95    3.34    2.42    2.26    1.50    1.08    0.01    0.00      0      0      0       0       0 19.72
 1982 162   162   106   16.0      5   3.06   2169   5517   8055   2135   7687  18137   5078  158.6  0.444  10451      8  0.673  0.782  0.000  0.000  0.000  0.000  1.000   0.00  77.07   0.58      0  10451    141.2   0.00   0.00   1.14    3.84    3.95    3.34    2.42    2.26    1.50    1.08    0.01    0.00      0      0      0       0       0 19.10
 1982 163   163   107   16.0      5   2.96   2148   5407   8231   2124   7555  18182   5078  162.1  0.453  10627      8  0.551  0.701  0.000  0.000  0.000  0.000  1.000   0.00  77.45   0.58      0  10627    138.0   0.00   0.00   1.14    3.84    3.95    3.34    2.42    2.26    1.50    1.08    0.01    0.00      0      0      0       0       0 17.55
 1982 164   164   108   16.0      5   2.86   2126   5299   8602   2114   7425  18423   5078  169.4  0.467  10998      8  0.000  0.000  0.000  0.000  0.000  0.000  1.000   0.00  78.21   0.60      0  10998    134.3   0.00   0.00   1.14    3.84    3.95    3.34    2.42    2.26    1.50    1.08    0.01    0.00      0      0      0       0       0 19.20
 1982 165   165   109   16.0      5   2.76   2126   5319   8837   2103   7445  18678   5078  174.0  0.473  11233      8  0.000  0.000  0.000  0.000  0.000  0.000  1.000   0.00  78.67   0.60      0  11233    129.7   0.00   0.00   1.14    3.84    3.95    3.34    2.42    2.26    1.50    1.08    0.01    0.00      0      0      0       0       0 17.80
 1982 166   166   110   16.0      5   2.65   2126   5319   9057   2093   7445  18897   5078  178.3  0.479  11453      8  0.000  0.000  0.000  0.000  0.000  0.000  1.000   0.00  79.08   0.61      0  11453    124.8   0.00   0.00   1.14    3.84    3.95    3.34    2.42    2.26    1.50    1.08    0.01    0.00      0      0      0       0       0 19.25
 1982 167   167   111   16.0      5   2.53   2126   5319   9260   2082   7445  19100   5078  182.3  0.485  11656      8  0.000  0.000  0.000  0.000  0.000  0.000  1.000   0.00  79.44   0.61      0  11656    119.0   0.00   0.00   1.14    3.84    3.95    3.34    2.42    2.26    1.50    1.08    0.01    0.00      0      0      0       0       0 20.05
 1982 168   168   112   16.0      5   2.42   2126   5319   9335   2072   7445  19176   5078  183.8  0.487  11731      8  0.000  0.000  0.000  0.000  0.000  0.000  1.000   0.00  79.58   0.61      0  11731    113.7   0.00   0.00   1.14    3.84    3.95    3.34    2.42    2.26    1.50    1.08    0.01    0.00      0      0      0       0       0 18.10
 1982 169   169   113   16.0      5   2.30   2126   5319   9469   2061   7445  19310   5078  186.5  0.490  11865      8  0.000  0.000  0.000  0.000  0.000  0.000  1.000   0.00  79.81   0.61      0  11865    108.0   0.00   0.00   1.14    3.84    3.95    3.34    2.42    2.26    1.50    1.08    0.01    0.00      0      0      0       0       0 16.45
 1982 170   170   114   16.0      5   2.17   2126   5319   9626   2051   7445  19467   5078  189.5  0.494  12022      8  0.000  0.000  0.000  0.000  0.000  0.000  1.000   0.00  80.07   0.62      0  12022    101.9   0.00   0.00   1.14    3.84    3.95    3.34    2.42    2.26    1.50    1.08    0.01    0.00      0      0      0       0       0 18.65
 1982 171   171   115   16.0      5   2.01   2126   5319   9766   2041   7445  19607   5078  192.3  0.498  12162      8  0.000  0.000  0.000  0.000  0.000  0.000  1.000   0.00  80.30   0.62      0  12162     94.8   0.00   0.00   1.14    3.84    3.95    3.34    2.42    2.26    1.50    1.08    0.01    0.00      0      0      0       0       0 19.50
 1982 172   172   116   16.0      5   1.86   2126   5319   9887   2031   7445  19728   5078  194.7  0.501  12283      8  0.000  0.000  0.000  0.000  0.000  0.000  1.000   0.00  80.49   0.62      0  12283     87.7   0.00   0.00   1.14    3.84    3.95    3.34    2.42    2.26    1.50    1.08    0.01    0.00      0      0      0       0       0 18.40
 1982 173   173   117   16.0      5   1.71   2126   5319   9986   2021   7445  19827   5078  196.6  0.504  12382      8  0.000  0.000  0.000  0.000  0.000  0.000  1.000   0.00  80.65   0.62      0  12382     80.4   0.00   0.00   1.14    3.84    3.95    3.34    2.42    2.26    1.50    1.08    0.01    0.00      0      0      0       0       0 17.80
 1982 174   174   118   16.0      5   1.55   2126   5319  10053   2010   7445  19894   5078  198.0  0.505  12449      8  0.000  0.000  0.000  0.000  0.000  0.000  1.000   0.00  80.75   0.63      0  12449     72.8   0.00   0.00   1.14    3.84    3.95    3.34    2.42    2.26    1.50    1.08    0.01    0.00      0      0      0       0       0 16.75
 1982 175   175   119   16.0      6   1.35   2126   5319  10124   2000   7445  19965   5078  199.4  0.507  12520      8  0.000  0.000  0.000  0.000  0.000  0.000  1.000   0.00  80.86   0.63      0  12520     63.6   0.00   0.00   1.14    3.84    3.95    3.34    2.42    2.26    1.50    1.08    0.01    0.00      0      0      0       0       0 18.40
 1982 176   176   120   16.0      6   1.12   2126   5319  10183   1990   7445  20024   5078  200.5  0.509  12579      8  0.000  0.000  0.000  0.000  0.000  0.000  1.000   0.00  80.95   0.63      0  12579     52.7   0.00   0.00   1.14    3.84    3.95    3.34    2.42    2.26    1.50    1.08    0.01    0.00      0      0      0       0       0 17.80
