
*DSSAT Cropping System Model Ver. 4.7.5.042 -develop  JAN 20, 2022 15:55:43

!     WATER BALANCE PARAMETERS
!     ========================                                               --mm--

!     Soil H20 (start) on Year/day 1982/001                                               364.15
!     Soil H20 (final) on Year/day 1982/176                                               518.41
!     Effective Irrigation                                                 0.00
!     Precipitation                                               898.50
!     Water added with new mulch                                                 0.00
!     Drainage                                                35.51
!     Tiledrain flow                                                 0.00
!     Runoff                                               187.10
!     Mulch evaporation                                                 0.00
!     Soil Evaporation                                               216.44
!     Transpiration                                               305.19
!     Potential ET                                               676.32

!     Initial mulch water content                                                  0.00
!     Final mulch water content                                                  0.00

!     Final Balance                                                -0.003

