*WARNING DETAIL FILE

******************************************************************************

*DSSAT Cropping System Model Ver. 4.7.5.042 -develop  JAN 20, 2022 15:55:41

******************************************************************************

*DSSAT Cropping System Model Ver. 4.7.5.042 -develop  JAN 20, 2022 15:55:43
