
*DSSAT Cropping System Model Ver. 4.7.5.042 -develop  JAN 20, 2022 15:55:43
@YEAR DOY   DAS   PRED  DAYLD   TWLD   SRAD   PARD   CLDD   TMXD   TMND   TAVD   TDYD   TDWD   TGAD   TGRD   WDSD   CO2D   VPDF    VPD  OZON7   WDATE
 1982 001     1   19.0   10.1   11.1    5.9   12.4   0.61   24.4   15.6   19.6   21.1   15.6   19.6   21.1   86.4  340.5   0.00   0.00 -99.00 1982001
 1982 002     2    0.0   10.1   11.2    7.0   14.2   0.54   22.2   15.0   18.3   19.5   15.0   18.3   19.5   86.4  340.5   0.00   0.00 -99.00 1982002
 1982 003     3    0.0   10.1   11.2    9.0   18.4   0.41   27.8   17.2   22.0   23.8   17.2   22.0   23.8   86.4  340.5   0.00   0.00 -99.00 1982003
 1982 004     4    9.4   10.2   11.2    3.1    6.4   0.80   26.1   15.0   20.0   22.0   15.0   20.0   22.0   86.4  340.5   0.00   0.00 -99.00 1982004
 1982 005     5    0.0   10.2   11.2   12.9   26.3   0.15   17.2    2.2    9.0   11.6    2.2    9.0   11.6   86.4  340.5   0.00   0.00 -99.00 1982005
 1982 006     6    0.0   10.2   11.2   11.4   22.2   0.25   25.0    4.4   13.8   17.3    4.4   13.8   17.3   86.4  340.5   0.00   0.00 -99.00 1982006
 1982 007     7    0.0   10.2   11.2    8.5   17.6   0.45   26.7   11.7   18.5   21.1   11.7   18.5   21.1   86.4  340.5   0.00   0.00 -99.00 1982007
 1982 008     8    5.3   10.2   11.2    3.0    6.6   0.80   22.8   14.4   18.2   19.7   14.4   18.2   19.7   86.4  340.5   0.00   0.00 -99.00 1982008
 1982 009     9    0.0   10.2   11.2   14.4   26.2   0.07   16.7    8.9   12.4   13.8    8.9   12.4   13.8   86.4  340.5   0.00   0.00 -99.00 1982009
 1982 010    10    0.0   10.2   11.2   12.0   22.4   0.23   14.4    1.1    7.1    9.5    1.1    7.1    9.5   86.4  340.5   0.00   0.00 -99.00 1982010
 1982 011    11    0.0   10.2   11.2   15.0   26.4   0.04   14.4   -6.7    2.9    6.6   -6.7    2.9    6.6   86.4  340.5   0.00   0.00 -99.00 1982011
 1982 012    12    0.0   10.2   11.2   10.8   20.6   0.31   10.0   -7.8    0.3    3.4   -7.8    0.3    3.4   86.4  340.5   0.00   0.00 -99.00 1982012
 1982 013    13   19.8   10.3   11.3    4.8   10.0   0.69   20.0    3.9   11.2   14.0    3.9   11.2   14.0   86.4  340.5   0.00   0.00 -99.00 1982013
 1982 014    14   81.0   10.3   11.3    6.2   12.4   0.61   18.9    6.1   11.9   14.2    6.1   11.9   14.2   86.4  340.5   0.00   0.00 -99.00 1982014
 1982 015    15    0.0   10.3   11.3   14.4   26.8   0.09   12.2   -3.3    3.8    6.5   -3.3    3.8    6.5   86.4  340.6   0.00   0.00 -99.00 1982015
 1982 016    16    0.0   10.3   11.3   12.6   24.3   0.21   19.4   -1.7    7.9   11.6   -1.7    7.9   11.6   86.4  340.6   0.00   0.00 -99.00 1982016
 1982 017    17    2.8   10.3   11.3   14.6   27.4   0.09   19.4    5.6   11.9   14.3    5.6   11.9   14.3   86.4  340.6   0.00   0.00 -99.00 1982017
 1982 018    18    0.0   10.3   11.3   11.2   22.1   0.30   20.6    1.1   10.0   13.4    1.1   10.0   13.4   86.4  340.6   0.00   0.00 -99.00 1982018
 1982 019    19    0.0   10.4   11.3   13.3   27.1   0.18   25.6    8.9   16.5   19.5    8.9   16.5   19.5   86.4  340.6   0.00   0.00 -99.00 1982019
 1982 020    20    0.0   10.4   11.4   13.4   26.6   0.18   27.8    8.3   17.2   20.7    8.3   17.2   20.7   86.4  340.6   0.00   0.00 -99.00 1982020
 1982 021    21    0.0   10.4   11.4   11.6   23.8   0.29   27.8   10.0   18.1   21.3   10.0   18.1   21.3   86.4  340.6   0.00   0.00 -99.00 1982021
 1982 022    22    0.0   10.4   11.4   10.7   21.9   0.35   25.6   12.2   18.3   20.7   12.2   18.3   20.7   86.4  340.6   0.00   0.00 -99.00 1982022
 1982 023    23    0.0   10.4   11.4   10.1   20.7   0.39   26.1   14.4   19.8   21.8   14.4   19.8   21.8   86.4  340.6   0.00   0.00 -99.00 1982023
 1982 024    24    0.0   10.4   11.4   12.9   26.3   0.23   23.9   10.0   16.4   18.8   10.0   16.4   18.8   86.4  340.6   0.00   0.00 -99.00 1982024
 1982 025    25    0.0   10.5   11.4   14.1   28.9   0.16   21.1    0.0    9.7   13.4    0.0    9.7   13.4   86.4  340.6   0.00   0.00 -99.00 1982025
 1982 026    26    0.0   10.5   11.5   14.2   29.0   0.16   20.0    4.4   11.6   14.3    4.4   11.6   14.3   86.4  340.6   0.00   0.00 -99.00 1982026
 1982 027    27    0.0   10.5   11.5   13.9   28.5   0.18   15.6   -1.1    6.6    9.6   -1.1    6.6    9.6   86.4  340.6   0.00   0.00 -99.00 1982027
 1982 028    28    0.0   10.5   11.5   13.8   28.2   0.19   21.7    2.2   11.2   14.7    2.2   11.2   14.7   86.4  340.6   0.00   0.00 -99.00 1982028
 1982 029    29    0.0   10.5   11.5   13.3   27.3   0.23   22.2    3.3   12.0   15.4    3.3   12.0   15.4   86.4  340.6   0.00   0.00 -99.00 1982029
 1982 030    30    0.0   10.6   11.5   12.5   25.6   0.28   25.6    8.9   16.6   19.6    8.9   16.6   19.6   86.4  340.6   0.00   0.00 -99.00 1982030
 1982 031    31    0.0   10.6   11.5   12.6   25.7   0.28   28.9   13.3   20.5   23.3   13.3   20.5   23.3   86.4  340.6   0.00   0.00 -99.00 1982031
 1982 032    32    0.3   10.6   11.6   14.0   28.6   0.20   26.1   12.2   18.6   21.1   12.2   18.6   21.1   86.4  340.6   0.00   0.00 -99.00 1982032
 1982 033    33    2.0   10.6   11.6    7.6   15.6   0.57   26.7   12.8   19.2   21.7   12.8   19.2   21.7   86.4  340.6   0.00   0.00 -99.00 1982033
 1982 034    34   25.9   10.7   11.6    3.3    6.7   0.82   27.2   15.6   20.9   23.1   15.6   20.9   23.1   86.4  340.6   0.00   0.00 -99.00 1982034
 1982 035    35    1.0   10.7   11.6   12.5   25.5   0.30   24.4   14.4   19.0   20.8   14.4   19.0   20.8   86.4  340.6   0.00   0.00 -99.00 1982035
 1982 036    36    0.0   10.7   11.7    8.5   17.4   0.53   27.8   14.4   20.6   23.0   14.4   20.6   23.0   86.4  340.6   0.00   0.00 -99.00 1982036
 1982 037    37    0.0   10.7   11.7    6.3   12.9   0.65   26.7   17.2   21.6   23.3   17.2   21.6   23.3   86.4  340.6   0.00   0.00 -99.00 1982037
 1982 038    38    0.0   10.8   11.7    8.0   16.3   0.56   26.7   10.6   18.0   21.0   10.6   18.0   21.0   86.4  340.6   0.00   0.00 -99.00 1982038
 1982 039    39    0.0   10.8   11.7   12.5   25.6   0.32   25.0   10.0   16.9   19.7   10.0   16.9   19.7   86.4  340.6   0.00   0.00 -99.00 1982039
 1982 040    40    0.0   10.8   11.7    7.9   16.1   0.58   26.7   16.1   21.0   23.0   16.1   21.0   23.0   86.4  340.6   0.00   0.00 -99.00 1982040
 1982 041    41    0.8   10.8   11.8    4.0    8.2   0.79   25.6   14.4   19.6   21.7   14.4   19.6   21.7   86.4  340.6   0.00   0.00 -99.00 1982041
 1982 042    42    0.0   10.9   11.8    6.5   13.3   0.66   18.9   12.8   15.6   16.8   12.8   15.6   16.8   86.4  340.6   0.00   0.00 -99.00 1982042
 1982 043    43    0.8   10.9   11.8    7.4   15.1   0.61   25.0   10.6   17.3   20.0   10.6   17.3   20.0   86.4  340.6   0.00   0.00 -99.00 1982043
 1982 044    44   18.0   10.9   11.8   13.3   27.2   0.31   25.6   10.6   17.6   20.4   10.6   17.6   20.4   86.4  340.6   0.00   0.00 -99.00 1982044
 1982 045    45    0.0   10.9   11.9   16.1   32.9   0.17   26.1    5.6   15.1   19.0    5.6   15.1   19.0   86.4  340.7   0.00   0.00 -99.00 1982045
 1982 046    46    0.0   11.0   11.9    9.6   19.6   0.51   26.7   13.3   19.5   22.0   13.3   19.5   22.0   86.4  340.7   0.00   0.00 -99.00 1982046
 1982 047    47   67.3   11.0   11.9   10.8   22.1   0.45   27.8   16.1   21.5   23.7   16.1   21.5   23.7   86.4  340.7   0.00   0.00 -99.00 1982047
 1982 048    48   10.9   11.0   11.9   13.4   27.4   0.32   27.2   14.4   20.4   22.8   14.4   20.4   22.8   86.4  340.7   0.00   0.00 -99.00 1982048
 1982 049    49    0.0   11.0   12.0   17.0   34.8   0.15   26.1   11.1   18.1   20.9   11.1   18.1   20.9   86.4  340.7   0.00   0.00 -99.00 1982049
 1982 050    50    0.0   11.1   12.0   15.5   31.7   0.23   25.6   12.2   18.4   21.0   12.2   18.4   21.0   86.4  340.7   0.00   0.00 -99.00 1982050
 1982 051    51    0.0   11.1   12.0   16.9   34.6   0.17   25.6   10.0   17.3   20.2   10.0   17.3   20.2   86.4  340.7   0.00   0.00 -99.00 1982051
 1982 052    52    0.0   11.1   12.0   16.6   33.9   0.19   24.4    9.4   16.4   19.3    9.4   16.4   19.3   86.4  340.7   0.00   0.00 -99.00 1982052
 1982 053    53    0.0   11.2   12.1   17.0   34.8   0.17   21.1    7.8   14.0   16.5    7.8   14.0   16.5   86.4  340.7   0.00   0.00 -99.00 1982053
 1982 054    54    0.0   11.2   12.1   17.7   36.2   0.15   23.9    1.1   11.8   16.1    1.1   11.8   16.1   86.4  340.7   0.00   0.00 -99.00 1982054
 1982 055    55    0.0   11.2   12.1   17.5   35.7   0.16   26.7    3.3   14.3   18.7    3.3   14.3   18.7   86.4  340.7   0.00   0.00 -99.00 1982055
 1982 056    56    0.0   11.2   12.2   14.8   30.3   0.30   27.2   10.6   18.4   21.6   10.6   18.4   21.6   86.4  340.7   0.00   0.00 -99.00 1982056
 1982 057    57    0.0   11.3   12.2    3.4    6.9   0.84   26.7   11.1   18.4   21.4   11.1   18.4   21.4   86.4  340.7   0.00   0.00 -99.00 1982057
 1982 058    58    0.0   11.3   12.2    8.9   18.2   0.58   25.6    8.9   16.7   20.0    8.9   16.7   20.0   86.4  340.7   0.00   0.00 -99.00 1982058
 1982 059    59    0.0   11.3   12.2    9.3   19.1   0.57   24.4   15.6   19.7   21.4   15.6   19.7   21.4   86.4  340.7   0.00   0.00 -99.00 1982059
 1982 060    60    0.0   11.4   12.3   10.9   22.2   0.50   17.8    8.3   12.8   14.6    8.3   12.8   14.6   86.4  340.7   0.00   0.00 -99.00 1982060
 1982 061    61    0.0   11.4   12.3   18.4   37.7   0.16   22.8    1.7   11.6   15.7    1.7   11.6   15.7   86.4  340.7   0.00   0.00 -99.00 1982061
 1982 062    62    0.0   11.4   12.3   17.6   36.0   0.20   25.0    6.1   15.0   18.7    6.1   15.0   18.7   86.4  340.7   0.00   0.00 -99.00 1982062
 1982 063    63    0.0   11.4   12.3   16.2   33.1   0.27   28.3    9.4   18.3   22.0    9.4   18.3   22.0   86.4  340.7   0.00   0.00 -99.00 1982063
 1982 064    64    8.4   11.5   12.4    6.3   12.9   0.72   27.8   16.1   21.6   23.9   16.1   21.6   23.9   86.4  340.7   0.00   0.00 -99.00 1982064
 1982 065    65   35.1   11.5   12.4   10.3   21.1   0.54   25.0   16.1   20.3   22.0   16.1   20.3   22.0   86.4  340.7   0.00   0.00 -99.00 1982065
 1982 066    66   14.2   11.5   12.4    9.0   18.4   0.60   24.4   15.0   19.4   21.3   15.0   19.4   21.3   86.4  340.7   0.00   0.00 -99.00 1982066
 1982 067    67    0.0   11.6   12.5   19.8   40.4   0.13   16.7    1.1    8.5   11.5    1.1    8.5   11.5   86.4  340.7   0.00   0.00 -99.00 1982067
 1982 068    68    0.0   11.6   12.5   19.6   40.0   0.15   21.7    3.9   12.3   15.8    3.9   12.3   15.8   86.4  340.7   0.00   0.00 -99.00 1982068
 1982 069    69    0.0   11.6   12.5   16.1   32.9   0.31   25.6   10.6   17.7   20.7   10.6   17.7   20.7   86.4  340.7   0.00   0.00 -99.00 1982069
 1982 070    70    0.0   11.7   12.6   17.7   36.2   0.24   27.8    9.4   18.1   21.8    9.4   18.1   21.8   86.4  340.7   0.00   0.00 -99.00 1982070
 1982 071    71    0.0   11.7   12.6   20.0   41.0   0.15   28.9   11.1   19.5   23.1   11.1   19.5   23.1   86.4  340.7   0.00   0.00 -99.00 1982071
 1982 072    72    0.0   11.7   12.6   19.0   38.8   0.20   30.6   10.0   19.8   23.9   10.0   19.8   23.9   86.4  340.7   0.00   0.00 -99.00 1982072
 1982 073    73    0.0   11.7   12.6   18.4   37.6   0.23   31.7   15.6   23.2   26.4   15.6   23.2   26.4   86.4  340.7   0.00   0.00 -99.00 1982073
 1982 074    74    0.0   11.8   12.7   17.5   35.7   0.27   30.0   16.7   23.0   25.7   16.7   23.0   25.7   86.4  340.8   0.00   0.00 -99.00 1982074
 1982 075    75    0.0   11.8   12.7   15.9   32.5   0.34   30.0   16.1   22.7   25.5   16.1   22.7   25.5   86.4  340.8   0.00   0.00 -99.00 1982075
 1982 076    76    0.0   11.8   12.7   19.5   39.9   0.20   30.6   15.6   22.7   25.7   15.6   22.7   25.7   86.4  340.8   0.00   0.00 -99.00 1982076
 1982 077    77    0.0   11.9   12.8   17.4   35.6   0.29   31.7   17.2   24.1   27.0   17.2   24.1   27.0   86.4  340.8   0.00   0.00 -99.00 1982077
 1982 078    78    1.8   11.9   12.8   16.7   34.2   0.32   30.6   18.3   24.2   26.6   18.3   24.2   26.6   86.4  340.8   0.00   0.00 -99.00 1982078
 1982 079    79    0.0   11.9   12.8   17.4   35.6   0.30   30.6   18.9   24.5   26.8   18.9   24.5   26.8   86.4  340.8   0.00   0.00 -99.00 1982079
 1982 080    80    0.0   12.0   12.9   13.6   27.8   0.46   30.0   15.6   22.5   25.4   15.6   22.5   25.4   86.4  340.8   0.00   0.00 -99.00 1982080
 1982 081    81    0.3   12.0   12.9   10.0   20.5   0.60   28.3   17.2   22.5   24.7   17.2   22.5   24.7   86.4  340.8   0.00   0.00 -99.00 1982081
 1982 082    82    9.4   12.0   12.9   13.2   27.0   0.48   26.1   16.1   20.9   22.5   16.1   20.9   22.5   86.4  340.8   0.00   0.00 -99.00 1982082
 1982 083    83    4.3   12.1   12.9    4.3    8.8   0.83   26.1   16.1   20.9   22.5   16.1   20.9   22.5   86.4  340.8   0.00   0.00 -99.00 1982083
 1982 084    84   26.2   12.1   13.0   17.0   34.8   0.34   27.8   16.1   21.7   23.6   16.1   21.7   23.6   86.4  340.8   0.00   0.00 -99.00 1982084
 1982 085    85    2.8   12.1   13.0   18.8   38.4   0.27   26.7   14.4   20.3   22.3   14.4   20.3   22.3   86.4  340.8   0.00   0.00 -99.00 1982085
 1982 086    86    0.0   12.1   13.0   12.9   26.3   0.50   22.2    5.6   13.6   16.3    5.6   13.6   16.3   86.4  340.8   0.00   0.00 -99.00 1982086
 1982 087    87    9.7   12.2   13.1    3.8    7.7   0.85   15.6    8.9   12.1   13.2    8.9   12.1   13.2   86.4  340.8   0.00   0.00 -99.00 1982087
 1982 088    88   25.7   12.2   13.1    9.9   20.3   0.62   21.1   10.0   15.3   17.2   10.0   15.3   17.2   86.4  340.8   0.00   0.00 -99.00 1982088
 1982 089    89    0.0   12.2   13.1   21.5   44.0   0.18   26.1   13.3   19.5   21.6   13.3   19.5   21.6   86.4  340.8   0.00   0.00 -99.00 1982089
 1982 090    90    0.0   12.3   13.2   16.1   33.0   0.39   26.7   14.4   20.3   22.4   14.4   20.3   22.4   86.4  340.8   0.00   0.00 -99.00 1982090
 1982 091    91    0.0   12.3   13.2   21.0   42.6   0.21   30.6   12.8   21.4   24.4   12.8   21.4   24.4   86.4  340.8   0.00   0.00 -99.00 1982091
 1982 092    92    0.0   12.3   13.2   22.1   44.4   0.18   29.4   14.4   21.6   24.2   14.4   21.6   24.2   86.4  340.8   0.00   0.00 -99.00 1982092
 1982 093    93    0.0   12.4   13.3   11.4   23.5   0.58   28.9   17.8   23.2   25.0   17.8   23.2   25.0   86.4  340.8   0.00   0.00 -99.00 1982093
 1982 094    94    0.0   12.4   13.3   23.8   45.3   0.12   28.3    9.4   18.6   21.7    9.4   18.6   21.7   86.4  340.8   0.00   0.00 -99.00 1982094
 1982 095    95    0.0   12.4   13.3   18.9   37.6   0.31   29.4   11.1   20.0   23.1   11.1   20.0   23.1   86.4  340.8   0.00   0.00 -99.00 1982095
 1982 096    96    0.0   12.4   13.4   24.1   46.0   0.12   25.6   17.2   21.3   22.7   17.2   21.3   22.7   86.4  340.8   0.00   0.00 -99.00 1982096
 1982 097    97    0.0   12.5   13.4   25.1   48.1   0.09   22.2    6.7   14.2   16.8    6.7   14.2   16.8   86.4  340.8   0.00   0.00 -99.00 1982097
 1982 098    98   48.0   12.5   13.4    0.8    2.2   0.97   21.1   11.1   16.0   17.7   11.1   16.0   17.7   86.4  340.8   0.00   0.00 -99.00 1982098
 1982 099    99   98.8   12.5   13.4    8.8   18.0   0.68   23.3   17.2   20.2   21.2   17.2   20.2   21.2   86.4  340.8   0.00   0.00 -99.00 1982099
 1982 100   100    3.6   12.6   13.5    3.8    8.4   0.86   23.9   10.6   17.1   19.3   10.6   17.1   19.3   86.4  340.8   0.00   0.00 -99.00 1982100
 1982 101   101   42.7   12.6   13.5   23.0   43.6   0.18   20.6    8.9   14.6   16.6    8.9   14.6   16.6   86.4  340.8   0.00   0.00 -99.00 1982101
 1982 102   102    0.0   12.6   13.5   25.4   48.6   0.10   25.0    6.1   15.3   18.6    6.1   15.3   18.6   86.4  340.8   0.00   0.00 -99.00 1982102
 1982 103   103    0.0   12.7   13.6   21.6   42.6   0.24   28.3   11.7   19.8   22.7   11.7   19.8   22.7   86.4  340.8   0.00   0.00 -99.00 1982103
 1982 104   104    0.0   12.7   13.6   21.6   42.1   0.24   27.2   15.0   21.0   23.1   15.0   21.0   23.1   86.4  340.8   0.00   0.00 -99.00 1982104
 1982 105   105    0.0   12.7   13.6   16.6   32.9   0.42   28.3   15.0   21.5   23.8   15.0   21.5   23.8   86.4  340.9   0.00   0.00 -99.00 1982105
 1982 106   106    0.0   12.7   13.7   20.7   40.8   0.28   30.6   17.8   24.1   26.3   17.8   24.1   26.3   86.4  340.9   0.00   0.00 -99.00 1982106
 1982 107   107    0.5   12.8   13.7   21.0   41.6   0.27   31.1   19.4   25.1   27.2   19.4   25.1   27.2   86.4  340.9   0.00   0.00 -99.00 1982107
 1982 108   108    0.5   12.8   13.7   18.9   37.1   0.35   30.0   18.9   24.3   26.3   18.9   24.3   26.3   86.4  340.9   0.00   0.00 -99.00 1982108
 1982 109   109    0.0   12.8   13.7   21.6   42.8   0.26   30.0   15.0   22.4   25.0   15.0   22.4   25.0   86.4  340.9   0.00   0.00 -99.00 1982109
 1982 110   110    0.0   12.9   13.8   20.7   40.8   0.29   31.1   18.9   24.9   27.0   18.9   24.9   27.0   86.4  340.9   0.00   0.00 -99.00 1982110
 1982 111   111    0.0   12.9   13.8   24.3   48.3   0.17   32.2   17.2   24.6   27.2   17.2   24.6   27.2   86.4  340.9   0.00   0.00 -99.00 1982111
 1982 112   112    0.0   12.9   13.8   23.7   46.7   0.19   31.7   17.8   24.6   27.1   17.8   24.6   27.1   86.4  340.9   0.00   0.00 -99.00 1982112
 1982 113   113    0.0   12.9   13.9    8.6   18.1   0.71   31.1   15.6   23.2   25.9   15.6   23.2   25.9   86.4  340.9   0.00   0.00 -99.00 1982113
 1982 114   114    0.0   13.0   13.9    7.5   16.0   0.75   22.2   13.9   18.0   19.4   13.9   18.0   19.4   86.4  340.9   0.00   0.00 -99.00 1982114
 1982 115   115    4.3   13.0   13.9    7.7   16.5   0.74   25.6   16.7   21.1   22.7   16.7   21.1   22.7   86.4  340.9   0.00   0.00 -99.00 1982115
 1982 116   116   23.1   13.0   14.0   10.7   22.6   0.64   25.6   19.4   22.5   23.6   19.4   22.5   23.6   86.4  340.9   0.00   0.00 -99.00 1982116
 1982 117   117    0.3   13.0   14.0   23.4   46.4   0.22   29.4   15.6   22.4   24.8   15.6   22.4   24.8   86.4  340.9   0.00   0.00 -99.00 1982117
 1982 118   118    0.0   13.1   14.0   23.7   46.2   0.21   28.9   13.3   21.0   23.8   13.3   21.0   23.8   86.4  340.9   0.00   0.00 -99.00 1982118
 1982 119   119    0.0   13.1   14.0   18.5   36.4   0.39   27.2   14.4   20.7   23.0   14.4   20.7   23.0   86.4  340.9   0.00   0.00 -99.00 1982119
 1982 120   120    0.0   13.1   14.1   20.7   41.1   0.32   26.7   15.6   21.1   23.1   15.6   21.1   23.1   86.4  340.9   0.00   0.00 -99.00 1982120
 1982 121   121    0.0   13.2   14.1   18.2   36.3   0.40   26.7   15.6   21.1   23.1   15.6   21.1   23.1   86.4  340.9   0.00   0.00 -99.00 1982121
 1982 122   122    0.0   13.2   14.1   19.9   39.6   0.35   27.8   15.0   21.3   23.6   15.0   21.3   23.6   86.4  340.9   0.00   0.00 -99.00 1982122
 1982 123   123    0.0   13.2   14.2   21.8   43.2   0.29   28.9   15.0   21.9   24.4   15.0   21.9   24.4   86.4  340.9   0.00   0.00 -99.00 1982123
 1982 124   124    0.0   13.2   14.2   23.6   46.2   0.23   28.9   12.8   20.8   23.7   12.8   20.8   23.7   86.4  340.9   0.00   0.00 -99.00 1982124
 1982 125   125    0.0   13.3   14.2   24.4   47.0   0.21   28.3   14.4   21.3   23.8   14.4   21.3   23.8   86.4  340.9   0.00   0.00 -99.00 1982125
 1982 126   126    0.0   13.3   14.2   21.7   42.2   0.30   27.8   12.2   20.0   22.7   12.2   20.0   22.7   86.4  340.9   0.00   0.00 -99.00 1982126
 1982 127   127    0.0   13.3   14.3   23.6   45.8   0.24   28.9   11.7   20.3   23.3   11.7   20.3   23.3   86.4  340.9   0.00   0.00 -99.00 1982127
 1982 128   128    1.0   13.3   14.3   18.2   35.9   0.41   29.4   17.8   23.6   25.7   17.8   23.6   25.7   86.4  340.9   0.00   0.00 -99.00 1982128
 1982 129   129    0.0   13.4   14.3   26.3   51.2   0.15   29.4   15.0   22.2   24.8   15.0   22.2   24.8   86.4  340.9   0.00   0.00 -99.00 1982129
 1982 130   130    0.0   13.4   14.3   26.3   50.3   0.16   29.4   13.3   21.3   24.2   13.3   21.3   24.2   86.4  340.9   0.00   0.00 -99.00 1982130
 1982 131   131    0.0   13.4   14.4   24.9   48.3   0.20   30.0   11.1   20.5   23.9   11.1   20.5   23.9   86.4  340.9   0.00   0.00 -99.00 1982131
 1982 132   132    0.0   13.4   14.4   23.5   46.3   0.25   31.1   13.3   22.2   25.4   13.3   22.2   25.4   86.4  340.9   0.00   0.00 -99.00 1982132
 1982 133   133    0.0   13.4   14.4   24.2   47.6   0.23   30.6   13.3   21.9   25.1   13.3   21.9   25.1   86.4  340.9   0.00   0.00 -99.00 1982133
 1982 134   134    0.0   13.5   14.4   26.7   52.5   0.15   31.1   12.8   21.9   25.2   12.8   21.9   25.2   86.4  340.9   0.00   0.00 -99.00 1982134
 1982 135   135    0.0   13.5   14.5   23.9   46.9   0.24   32.2   15.6   23.9   26.9   15.6   23.9   26.9   86.4  341.0   0.00   0.00 -99.00 1982135
 1982 136   136    0.0   13.5   14.5   22.8   44.7   0.28   33.3   15.6   24.5   27.7   15.6   24.5   27.7   86.4  341.0   0.00   0.00 -99.00 1982136
 1982 137   137    0.0   13.5   14.5   22.7   44.6   0.28   32.8   15.6   24.2   27.3   15.6   24.2   27.3   86.4  341.0   0.00   0.00 -99.00 1982137
 1982 138   138    0.0   13.5   14.5   21.5   42.7   0.32   31.1   16.7   23.9   26.5   16.7   23.9   26.5   86.4  341.0   0.00   0.00 -99.00 1982138
 1982 139   139    0.0   13.6   14.6   22.4   45.1   0.30   30.6   16.7   23.7   26.2   16.7   23.7   26.2   86.4  341.0   0.00   0.00 -99.00 1982139
 1982 140   140    0.0   13.6   14.6   22.5   45.7   0.29   31.7   16.1   23.9   26.8   16.1   23.9   26.8   86.4  341.0   0.00   0.00 -99.00 1982140
 1982 141   141    0.0   13.6   14.6   22.6   46.2   0.29   32.2   16.1   24.2   27.1   16.1   24.2   27.1   86.4  341.0   0.00   0.00 -99.00 1982141
 1982 142   142    2.0   13.6   14.6   17.4   36.7   0.46   32.8   16.7   24.8   27.7   16.7   24.8   27.7   86.4  341.0   0.00   0.00 -99.00 1982142
 1982 143   143   35.1   13.6   14.6   13.2   27.0   0.59   33.3   20.0   26.7   29.1   20.0   26.7   29.1   86.4  341.0   0.00   0.00 -99.00 1982143
 1982 144   144    3.6   13.7   14.7   21.5   43.9   0.33   32.8   18.9   25.9   28.4   18.9   25.9   28.4   86.4  341.0   0.00   0.00 -99.00 1982144
 1982 145   145    2.5   13.7   14.7   20.3   42.1   0.37   32.8   20.0   26.4   28.8   20.0   26.4   28.8   86.4  341.0   0.00   0.00 -99.00 1982145
 1982 146   146    1.0   13.7   14.7   15.0   31.5   0.53   31.7   20.6   26.2   28.2   20.6   26.2   28.2   86.4  341.0   0.00   0.00 -99.00 1982146
 1982 147   147    0.0   13.7   14.7   18.2   37.5   0.43   32.2   21.1   26.7   28.7   21.1   26.7   28.7   86.4  341.0   0.00   0.00 -99.00 1982147
 1982 148   148    4.3   13.7   14.7   22.1   44.8   0.31   33.3   20.6   27.0   29.3   20.6   27.0   29.3   86.4  341.0   0.00   0.00 -99.00 1982148
 1982 149   149    0.0   13.7   14.7   19.3   39.5   0.40   34.4   22.2   28.3   30.6   22.2   28.3   30.6   86.4  341.0   0.00   0.00 -99.00 1982149
 1982 150   150    5.6   13.7   14.8    7.0   15.7   0.78   32.2   22.8   27.5   29.3   22.8   27.5   29.3   86.4  341.0   0.00   0.00 -99.00 1982150
 1982 151   151   23.9   13.8   14.8   11.8   24.7   0.64   30.0   20.6   25.3   27.1   20.6   25.3   27.1   86.4  341.0   0.00   0.00 -99.00 1982151
 1982 152   152   15.2   13.8   14.8   20.0   43.9   0.38   31.1   21.1   26.1   28.0   21.1   26.1   28.0   86.4  341.0   0.00   0.00 -99.00 1982152
 1982 153   153    0.0   13.8   14.8   24.9   53.5   0.23   33.3   20.0   26.7   29.1   20.0   26.7   29.1   86.4  341.0   0.00   0.00 -99.00 1982153
 1982 154   154    1.8   13.8   14.8   15.8   34.4   0.51   33.3   22.8   28.1   30.0   22.8   28.1   30.0   86.4  341.0   0.00   0.00 -99.00 1982154
 1982 155   155    0.0   13.8   14.8   21.6   47.5   0.34   33.3   22.2   27.8   29.8   22.2   27.8   29.8   86.4  341.0   0.00   0.00 -99.00 1982155
 1982 156   156    0.0   13.8   14.8   23.8   51.6   0.27   33.9   18.3   26.2   29.0   18.3   26.2   29.0   86.4  341.0   0.00   0.00 -99.00 1982156
 1982 157   157    0.0   13.8   14.9   26.5   56.3   0.19   34.4   18.3   26.4   29.4   18.3   26.4   29.4   86.4  341.0   0.00   0.00 -99.00 1982157
 1982 158   158    0.0   13.8   14.9   26.9   57.2   0.17   33.9   18.3   26.2   29.0   18.3   26.2   29.0   86.4  341.0   0.00   0.00 -99.00 1982158
 1982 159   159    0.0   13.8   14.9   26.3   56.3   0.19   34.4   17.2   25.9   29.1   17.2   25.9   29.1   86.4  341.0   0.00   0.00 -99.00 1982159
 1982 160   160    0.0   13.9   14.9   24.4   51.8   0.25   34.4   19.4   27.0   29.7   19.4   27.0   29.7   86.4  341.0   0.00   0.00 -99.00 1982160
 1982 161   161    0.0   13.9   14.9   25.5   54.7   0.22   34.4   21.1   27.8   30.3   21.1   27.8   30.3   86.4  341.0   0.00   0.00 -99.00 1982161
 1982 162   162    0.0   13.9   14.9   23.6   51.1   0.28   35.0   19.4   27.3   30.2   19.4   27.3   30.2   86.4  341.0   0.00   0.00 -99.00 1982162
 1982 163   163   50.8   13.9   14.9   15.2   33.4   0.53   31.1   20.0   25.6   27.7   20.0   25.6   27.7   86.4  341.0   0.00   0.00 -99.00 1982163
 1982 164   164    0.0   13.9   14.9   21.1   46.1   0.35   33.3   21.1   27.3   29.5   21.1   27.3   29.5   86.4  341.0   0.00   0.00 -99.00 1982164
 1982 165   165    0.0   13.9   14.9   25.5   55.7   0.22   33.3   18.3   25.9   28.7   18.3   25.9   28.7   86.4  341.0   0.00   0.00 -99.00 1982165
 1982 166   166    0.0   13.9   14.9   23.2   51.3   0.29   33.9   20.6   27.3   29.8   20.6   27.3   29.8   86.4  341.1   0.00   0.00 -99.00 1982166
 1982 167   167    0.0   13.9   14.9   25.5   56.1   0.22   33.9   22.2   28.1   30.3   22.2   28.1   30.3   86.4  341.1   0.00   0.00 -99.00 1982167
 1982 168   168    8.1   13.9   14.9    6.0   14.4   0.82   31.1   21.1   26.2   28.0   21.1   26.2   28.0   86.4  341.1   0.00   0.00 -99.00 1982168
 1982 169   169   70.1   13.9   15.0   13.5   30.0   0.59   27.8   21.1   24.5   25.7   21.1   24.5   25.7   86.4  341.1   0.00   0.00 -99.00 1982169
 1982 170   170    0.0   13.9   15.0   24.3   52.9   0.26   33.3   20.0   26.7   29.2   20.0   26.7   29.2   86.4  341.1   0.00   0.00 -99.00 1982170
 1982 171   171    0.0   13.9   15.0   25.9   56.2   0.21   33.9   21.1   27.6   29.9   21.1   27.6   29.9   86.4  341.1   0.00   0.00 -99.00 1982171
 1982 172   172    3.3   13.9   15.0   20.9   46.5   0.36   32.8   20.0   26.5   28.8   20.0   26.5   28.8   86.4  341.1   0.00   0.00 -99.00 1982172
 1982 173   173    2.0   13.9   15.0   18.5   40.3   0.44   28.3   23.3   25.8   26.8   23.3   25.8   26.8   86.4  341.1   0.00   0.00 -99.00 1982173
 1982 174   174   26.9   13.9   15.0   11.7   25.4   0.64   27.8   21.7   24.8   25.9   21.7   24.8   25.9   86.4  341.1   0.00   0.00 -99.00 1982174
 1982 175   175    6.4   13.9   15.0   18.6   39.9   0.43   30.6   22.2   26.5   28.0   22.2   26.5   28.0   86.4  341.1   0.00   0.00 -99.00 1982175
 1982 176   176   10.9   13.9   15.0   22.9   48.4   0.30   32.2   19.4   25.9   28.2   19.4   25.9   28.2   86.4  341.1   0.00   0.00 -99.00 1982176
