*SOIL-PLANT-ATMOSPHERE MODULE OUTPUT FILE

*DSSAT Cropping System Model Ver. 4.7.5.042 -develop  NOV 25, 2021 10:20:41
!                                                                                                                                                                                        Soil evaporation (mm/d) by soil depth (cm):
!                                                                                                                                                                                        0-5    5-15   15-30   30-45   45-60   60-90  90-120 120-150 150-180
@YEAR DOY   DAS   SRAA  TMAXA  TMINA    REFA    EOAA    EOPA    EOSA    KCAA    KCBA    KEAA    ETAA    EPAA    ESAA    EFAA    EMAA    EOAC    ETAC    EPAC    ESAC    EFAC    EMAC    RU1D    RU2D    RU3D    RU4D    RU5D    RU6D    RU7D    RU8D    RU9D    ES1D    ES2D    ES3D    ES4D    ES5D    ES6D    ES7D    ES8D    ES9D   TRWUD
 1982 001     1   5.90  24.40  15.60 -99.000   1.422   0.000   1.422 -99.000 -99.000 -99.000   1.422   0.000   1.422   0.000   0.000    1.42    1.42    0.00    1.42    0.00    0.00   0.311   0.220   0.164   0.109   0.084   0.113   0.083   0.125   0.212   0.000
 1982 002     2   7.00  22.20  15.00 -99.000   1.753   0.000   1.753 -99.000 -99.000 -99.000   1.753   0.000   1.753   0.000   0.000    3.18    3.18    0.00    3.18    0.00    0.00   0.372   0.255   0.197   0.133   0.103   0.155   0.115   0.157   0.266   0.000
 1982 003     3   9.00  27.80  17.20 -99.000   2.341   0.000   2.341 -99.000 -99.000 -99.000   2.341   0.000   2.341   0.000   0.000    5.52    5.52    0.00    5.52    0.00    0.00   0.454   0.313   0.258   0.179   0.143   0.223   0.177   0.220   0.374   0.000
 1982 004     4   3.10  26.10  15.00 -99.000   0.763   0.000   0.763 -99.000 -99.000 -99.000   0.763   0.000   0.763   0.000   0.000    6.28    6.28    0.00    6.28    0.00    0.00   0.172   0.104   0.082   0.056   0.044   0.069   0.055   0.067   0.114   0.000
 1982 005     5  12.90  17.20   2.20 -99.000   2.697   0.000   2.697 -99.000 -99.000 -99.000   2.697   0.000   2.697   0.000   0.000    8.98    8.98    0.00    8.98    0.00    0.00   0.584   0.358   0.289   0.199   0.157   0.252   0.200   0.244   0.414   0.000
 1982 006     6  11.40  25.00   4.40 -99.000   2.572   0.000   2.572 -99.000 -99.000 -99.000   2.572   0.000   2.572   0.000   0.000   11.55   11.55    0.00   11.55    0.00    0.00   0.497   0.333   0.283   0.197   0.155   0.250   0.199   0.244   0.414   0.000
 1982 007     7   8.50  26.70  11.70 -99.000   2.047   0.000   2.047 -99.000 -99.000 -99.000   0.391   0.000   0.391   0.000   0.000   13.60   11.94    0.00   11.94    0.00    0.00   0.331   0.038   0.011   0.004   0.002   0.002   0.001   0.001   0.002   0.000
 1982 008     8   3.00  22.80  14.40 -99.000   0.699   0.000   0.699 -99.000 -99.000 -99.000   0.699   0.000   0.699   0.000   0.000   14.29   12.64    0.00   12.64    0.00    0.00   0.146   0.090   0.075   0.052   0.041   0.066   0.053   0.065   0.110   0.000
 1982 009     9  14.40  16.70   8.90 -99.000   3.127   0.000   3.127 -99.000 -99.000 -99.000   3.127   0.000   3.127   0.000   0.000   17.42   15.77    0.00   15.77    0.00    0.00   0.656   0.402   0.335   0.236   0.185   0.297   0.234   0.290   0.492   0.000
 1982 010    10  12.00  14.40   1.10 -99.000   2.233   0.000   2.233 -99.000 -99.000 -99.000   2.233   0.000   2.233   0.000   0.000   19.65   18.00    0.00   18.00    0.00    0.00   0.425   0.285   0.242   0.173   0.136   0.219   0.173   0.215   0.366   0.000
 1982 011    11  15.00  14.40  -6.70 -99.000   2.536   0.000   2.536 -99.000 -99.000 -99.000   0.383   0.000   0.383   0.000   0.000   22.19   18.38    0.00   18.38    0.00    0.00   0.324   0.037   0.011   0.004   0.002   0.002   0.001   0.001   0.002   0.000
 1982 012    12  10.80  10.00  -7.80 -99.000   1.652   0.000   1.652 -99.000 -99.000 -99.000   0.356   0.000   0.356   0.000   0.000   23.84   18.74    0.00   18.74    0.00    0.00   0.297   0.037   0.011   0.004   0.002   0.002   0.001   0.001   0.002   0.000
 1982 013    13   4.80  20.00   3.90 -99.000   0.973   0.000   0.973 -99.000 -99.000 -99.000   0.973   0.000   0.973   0.000   0.000   24.82   19.71    0.00   19.71    0.00    0.00   0.202   0.147   0.110   0.074   0.056   0.087   0.069   0.085   0.143   0.000
 1982 014    14   6.20  18.90   6.10 -99.000   1.378   0.000   1.378 -99.000 -99.000 -99.000   1.378   0.000   1.378   0.000   0.000   26.19   21.09    0.00   21.09    0.00    0.00   0.309   0.211   0.161   0.109   0.084   0.129   0.098   0.108   0.169   0.000
 1982 015    15  14.40  12.20  -3.30 -99.000   2.613   0.000   2.613 -99.000 -99.000 -99.000   2.613   0.000   2.613   0.000   0.000   28.81   23.70    0.00   23.70    0.00    0.00   0.511   0.350   0.299   0.209   0.166   0.265   0.204   0.233   0.375   0.000
 1982 016    16  12.60  19.40  -1.70 -99.000   2.484   0.000   2.484 -99.000 -99.000 -99.000   2.484   0.000   2.484   0.000   0.000   31.29   26.19    0.00   26.19    0.00    0.00   0.466   0.324   0.277   0.195   0.154   0.249   0.194   0.235   0.391   0.000
 1982 017    17  14.60  19.40   5.60 -99.000   3.037   0.000   3.037 -99.000 -99.000 -99.000   3.037   0.000   3.037   0.000   0.000   34.33   29.22    0.00   29.22    0.00    0.00   0.598   0.391   0.333   0.234   0.185   0.296   0.235   0.287   0.479   0.000
 1982 018    18  11.20  20.60   1.10 -99.000   2.313   0.000   2.313 -99.000 -99.000 -99.000   2.313   0.000   2.313   0.000   0.000   36.64   31.54    0.00   31.54    0.00    0.00   0.446   0.297   0.252   0.178   0.142   0.227   0.180   0.222   0.371   0.000
 1982 019    19  13.30  25.60   8.90 -99.000   3.095   0.000   3.095 -99.000 -99.000 -99.000   3.095   0.000   3.095   0.000   0.000   39.74   34.63    0.00   34.63    0.00    0.00   0.555   0.394   0.340   0.242   0.193   0.310   0.247   0.304   0.509   0.000
 1982 020    20  13.40  27.80   8.30 -99.000   3.146   0.000   3.146 -99.000 -99.000 -99.000   3.014   0.000   3.014   0.000   0.000   42.88   37.64    0.00   37.64    0.00    0.00   0.487   0.380   0.335   0.241   0.193   0.311   0.248   0.306   0.513   0.000
 1982 021    21  11.60  27.80  10.00 -99.000   2.728   0.000   2.728 -99.000 -99.000 -99.000   0.309   0.000   0.309   0.000   0.000   45.61   37.95    0.00   37.95    0.00    0.00   0.252   0.034   0.011   0.004   0.002   0.002   0.001   0.001   0.002   0.000
 1982 022    22  10.70  25.60  12.20 -99.000   2.478   0.000   2.478 -99.000 -99.000 -99.000   0.288   0.000   0.288   0.000   0.000   48.09   38.24    0.00   38.24    0.00    0.00   0.231   0.034   0.011   0.004   0.002   0.002   0.001   0.001   0.002   0.000
 1982 023    23  10.10  26.10  14.40 -99.000   2.381   0.000   2.381 -99.000 -99.000 -99.000   0.268   0.000   0.268   0.000   0.000   50.47   38.51    0.00   38.51    0.00    0.00   0.212   0.034   0.011   0.004   0.002   0.002   0.001   0.001   0.002   0.000
 1982 024    24  12.90  23.90  10.00 -99.000   2.840   0.000   2.840 -99.000 -99.000 -99.000   0.251   0.000   0.251   0.000   0.000   53.31   38.76    0.00   38.76    0.00    0.00   0.195   0.034   0.011   0.004   0.002   0.002   0.001   0.001   0.002   0.000
 1982 025    25  14.10  21.10   0.00 -99.000   2.718   0.000   2.718 -99.000 -99.000 -99.000   0.235   0.000   0.235   0.000   0.000   56.03   38.99    0.00   38.99    0.00    0.00   0.179   0.034   0.011   0.004   0.002   0.002   0.001   0.001   0.002   0.000
 1982 026    26  14.20  20.00   4.40 -99.000   2.797   0.000   2.797 -99.000 -99.000 -99.000   0.220   0.000   0.220   0.000   0.000   58.82   39.21    0.00   39.21    0.00    0.00   0.164   0.033   0.011   0.004   0.002   0.002   0.001   0.001   0.002   0.000
 1982 027    27  13.90  15.60  -1.10 -99.000   2.418   0.000   2.418 -99.000 -99.000 -99.000   0.206   0.000   0.206   0.000   0.000   61.24   39.42    0.00   39.42    0.00    0.00   0.151   0.033   0.011   0.004   0.002   0.002   0.001   0.001   0.002   0.000
 1982 028    28  13.80  21.70   2.20 -99.000   2.705   0.000   2.705 -99.000 -99.000 -99.000   0.194   0.000   0.194   0.000   0.000   63.95   39.61    0.00   39.61    0.00    0.00   0.138   0.033   0.011   0.004   0.002   0.002   0.001   0.001   0.002   0.000
 1982 029    29  13.30  22.20   3.30 -99.000   2.643   0.000   2.643 -99.000 -99.000 -99.000   0.182   0.000   0.182   0.000   0.000   66.59   39.80    0.00   39.80    0.00    0.00   0.127   0.033   0.011   0.004   0.002   0.002   0.001   0.001   0.002   0.000
 1982 030    30  12.50  25.60   8.90 -99.000   2.718   0.000   2.718 -99.000 -99.000 -99.000   0.171   0.000   0.171   0.000   0.000   69.31   39.97    0.00   39.97    0.00    0.00   0.117   0.033   0.011   0.004   0.002   0.002   0.001   0.001   0.002   0.000
 1982 031    31  12.60  28.90  13.30 -99.000   2.945   0.000   2.945 -99.000 -99.000 -99.000   0.162   0.000   0.162   0.000   0.000   72.25   40.13    0.00   40.13    0.00    0.00   0.107   0.033   0.010   0.004   0.002   0.002   0.001   0.001   0.002   0.000
 1982 032    32  14.00  26.10  12.20 -99.000   3.129   0.000   3.129 -99.000 -99.000 -99.000   0.165   0.000   0.165   0.000   0.000   75.38   40.29    0.00   40.29    0.00    0.00   0.111   0.032   0.010   0.004   0.002   0.002   0.001   0.001   0.002   0.000
 1982 033    33   7.60  26.70  12.80 -99.000   1.728   0.000   1.728 -99.000 -99.000 -99.000   0.250   0.000   0.250   0.000   0.000   77.11   40.54    0.00   40.54    0.00    0.00   0.196   0.032   0.010   0.004   0.002   0.002   0.001   0.001   0.002   0.000
 1982 034    34   3.30  27.20  15.60 -99.000   0.808   0.000   0.808 -99.000 -99.000 -99.000   0.808   0.000   0.808   0.000   0.000   77.92   41.35    0.00   41.35    0.00    0.00   0.165   0.117   0.095   0.063   0.048   0.073   0.058   0.071   0.119   0.000
 1982 035    35  12.50  24.40  14.40 -99.000   3.211   0.000   3.211 -99.000 -99.000 -99.000   3.211   0.000   3.211   0.000   0.000   81.13   44.56    0.00   44.56    0.00    0.00   0.693   0.458   0.381   0.264   0.198   0.284   0.221   0.268   0.444   0.000
 1982 036    36   8.50  27.80  14.40 -99.000   2.181   0.000   2.181 -99.000 -99.000 -99.000   2.181   0.000   2.181   0.000   0.000   83.31   46.74    0.00   46.74    0.00    0.00   0.421   0.290   0.247   0.173   0.135   0.209   0.164   0.202   0.340   0.000
 1982 037    37   6.30  26.70  17.20 -99.000   1.594   0.000   1.594 -99.000 -99.000 -99.000   1.594   0.000   1.594   0.000   0.000   84.90   48.34    0.00   48.34    0.00    0.00   0.293   0.207   0.177   0.124   0.098   0.158   0.124   0.153   0.259   0.000
 1982 038    38   8.00  26.70  10.60 -99.000   1.908   0.000   1.908 -99.000 -99.000 -99.000   1.908   0.000   1.908   0.000   0.000   86.81   50.25    0.00   50.25    0.00    0.00   0.333   0.247   0.213   0.150   0.119   0.192   0.151   0.187   0.316   0.000
 1982 039    39  12.50  25.00  10.00 -99.000   2.881   0.000   2.881 -99.000 -99.000 -99.000   2.881   0.000   2.881   0.000   0.000   89.69   53.13    0.00   53.13    0.00    0.00   0.472   0.370   0.325   0.230   0.182   0.295   0.233   0.287   0.487   0.000
 1982 040    40   7.90  26.70  16.10 -99.000   1.929   0.000   1.929 -99.000 -99.000 -99.000   0.318   0.000   0.318   0.000   0.000   91.62   53.45    0.00   53.45    0.00    0.00   0.261   0.035   0.011   0.004   0.002   0.002   0.001   0.001   0.002   0.000
 1982 041    41   4.00  25.60  14.40 -99.000   0.945   0.000   0.945 -99.000 -99.000 -99.000   0.330   0.000   0.330   0.000   0.000   92.57   53.77    0.00   53.77    0.00    0.00   0.272   0.035   0.011   0.004   0.002   0.002   0.001   0.001   0.002   0.000
 1982 042    42   6.50  18.90  12.80 -99.000   1.412   0.000   1.412 -99.000 -99.000 -99.000   0.340   0.000   0.340   0.000   0.000   93.98   54.11    0.00   54.11    0.00    0.00   0.283   0.035   0.011   0.004   0.002   0.002   0.001   0.001   0.002   0.000
 1982 043    43   7.40  25.00  10.60 -99.000   1.693   0.000   1.693 -99.000 -99.000 -99.000   0.349   0.000   0.349   0.000   0.000   95.67   54.46    0.00   54.46    0.00    0.00   0.292   0.035   0.011   0.004   0.002   0.002   0.001   0.001   0.002   0.000
 1982 044    44  13.30  25.60  10.60 -99.000   3.105   0.000   3.105 -99.000 -99.000 -99.000   3.105   0.000   3.105   0.000   0.000   98.78   57.57    0.00   57.57    0.00    0.00   0.665   0.457   0.342   0.232   0.179   0.280   0.220   0.272   0.457   0.000
 1982 045    45  16.10  26.10   5.60 -99.000   3.882   0.000   3.882 -99.000 -99.000 -99.000   3.394   0.000   3.394   0.000   0.000  102.66   60.96    0.00   60.96    0.00    0.00   0.705   0.486   0.373   0.254   0.197   0.315   0.247   0.305   0.513   0.000
 1982 046    46   9.60  26.70  13.30 -99.000   2.366   0.000   2.366 -99.000 -99.000 -99.000   2.366   0.000   2.366   0.000   0.000  105.03   63.33    0.00   63.33    0.00    0.00   0.449   0.314   0.260   0.183   0.143   0.230   0.181   0.224   0.381   0.000
 1982 047    47  10.80  27.80  16.10 -99.000   2.726   0.000   2.726 -99.000 -99.000 -99.000   2.726   0.000   2.726   0.000   0.000  107.75   66.06    0.00   66.06    0.00    0.00   0.543   0.383   0.324   0.228   0.179   0.268   0.198   0.229   0.374   0.000
 1982 048    48  13.40  27.20  14.40 -99.000   3.529   0.000   3.529 -99.000 -99.000 -99.000   3.529   0.000   3.529   0.000   0.000  111.28   69.58    0.00   69.58    0.00    0.00   0.755   0.525   0.417   0.299   0.240   0.328   0.252   0.279   0.434   0.000
 1982 049    49  17.00  26.10  11.10 -99.000   4.283   0.000   4.283 -99.000 -99.000 -99.000   3.577   0.000   3.577   0.000   0.000  115.56   73.16    0.00   73.16    0.00    0.00   0.701   0.489   0.404   0.287   0.229   0.344   0.271   0.323   0.530   0.000
 1982 050    50  15.50  25.60  12.20 -99.000   3.734   0.000   3.734 -99.000 -99.000 -99.000   3.258   0.000   3.258   0.000   0.000  119.30   76.42    0.00   76.42    0.00    0.00   0.605   0.427   0.362   0.256   0.203   0.320   0.253   0.311   0.521   0.000
 1982 051    51  16.90  25.60  10.00 -99.000   3.940   0.000   3.940 -99.000 -99.000 -99.000   3.116   0.000   3.116   0.000   0.000  123.24   79.54    0.00   79.54    0.00    0.00   0.522   0.405   0.352   0.250   0.194   0.316   0.250   0.308   0.518   0.000
 1982 052    52  16.60  24.40   9.40 -99.000   3.745   0.000   3.745 -99.000 -99.000 -99.000   2.992   0.000   2.992   0.000   0.000  126.98   82.53    0.00   82.53    0.00    0.00   0.451   0.384   0.341   0.245   0.191   0.312   0.248   0.305   0.515   0.000
 1982 053    53  17.00  21.10   7.80 -99.000   3.583   0.000   3.583 -99.000 -99.000 -99.000   0.290   0.000   0.290   0.000   0.000  130.57   82.82    0.00   82.82    0.00    0.00   0.233   0.035   0.011   0.004   0.002   0.002   0.001   0.001   0.002   0.000
 1982 054    54  17.70  23.90   1.10 -99.000   3.625   0.000   3.625 -99.000 -99.000 -99.000   0.271   0.000   0.271   0.000   0.000  134.19   83.09    0.00   83.09    0.00    0.00   0.214   0.034   0.011   0.004   0.002   0.002   0.001   0.001   0.002   0.000
 1982 055    55  17.50  26.70   3.30 -99.000   3.774   0.000   3.774 -99.000 -99.000 -99.000   0.253   0.000   0.253   0.000   0.000  137.96   83.34    0.00   83.34    0.00    0.00   0.197   0.034   0.011   0.004   0.002   0.002   0.001   0.001   0.002   0.000
 1982 056    56  14.80  27.20  10.60 -99.000   3.396   0.000   3.396 -99.000 -99.000 -99.000   0.237   0.000   0.237   0.000   0.000  141.36   83.58    0.00   83.58    0.00    0.00   0.180   0.034   0.011   0.004   0.002   0.002   0.001   0.001   0.002   0.000
 1982 057    57   3.40  26.70  11.10 -99.000   0.775   0.000   0.775 -99.000 -99.000 -99.000   0.222   0.000   0.222   0.000   0.000  142.14   83.80    0.00   83.80    0.00    0.00   0.166   0.034   0.011   0.004   0.002   0.002   0.001   0.001   0.002   0.000
 1982 058    58   8.90  25.60   8.90 -99.000   1.957   0.000   1.957 -99.000 -99.000 -99.000   0.208   0.000   0.208   0.000   0.000  144.09   84.01    0.00   84.01    0.00    0.00   0.152   0.034   0.011   0.004   0.002   0.002   0.001   0.001   0.002   0.000
 1982 059    59   9.30  24.40  15.60 -99.000   2.120   0.000   2.120 -99.000 -99.000 -99.000   0.195   0.000   0.195   0.000   0.000  146.21   84.21    0.00   84.21    0.00    0.00   0.139   0.034   0.011   0.004   0.002   0.002   0.001   0.001   0.002   0.000
 1982 060    60  10.90  17.80   8.30 -99.000   2.135   0.000   2.135 -99.000 -99.000 -99.000   0.184   0.000   0.184   0.000   0.000  148.35   84.39    0.00   84.39    0.00    0.00   0.128   0.033   0.011   0.004   0.002   0.002   0.001   0.001   0.002   0.000
 1982 061    61  18.40  22.80   1.70 -99.000   3.622   0.000   3.622 -99.000 -99.000 -99.000   0.173   0.000   0.173   0.000   0.000  151.97   84.56    0.00   84.56    0.00    0.00   0.118   0.033   0.011   0.004   0.002   0.002   0.001   0.001   0.002   0.000
 1982 062    62  17.60  25.00   6.10 -99.000   3.699   0.000   3.699 -99.000 -99.000 -99.000   0.163   0.000   0.163   0.000   0.000  155.67   84.73    0.00   84.73    0.00    0.00   0.108   0.033   0.011   0.004   0.002   0.002   0.001   0.001   0.002   0.000
 1982 063    63  16.20  28.30   9.40 -99.000   3.636   0.000   3.636 -99.000 -99.000 -99.000   0.154   0.000   0.154   0.000   0.000  159.30   84.88    0.00   84.88    0.00    0.00   0.099   0.033   0.011   0.004   0.002   0.002   0.001   0.001   0.002   0.000
 1982 064    64   6.30  27.80  16.10 -99.000   1.478   0.000   1.478 -99.000 -99.000 -99.000   1.478   0.000   1.478   0.000   0.000  160.78   86.36    0.00   86.36    0.00    0.00   0.253   0.190   0.165   0.118   0.091   0.149   0.119   0.147   0.247   0.000
 1982 065    65  10.30  25.00  16.10 -99.000   2.656   0.000   2.656 -99.000 -99.000 -99.000   2.656   0.000   2.656   0.000   0.000  163.44   89.01    0.00   89.01    0.00    0.00   0.630   0.375   0.313   0.219   0.156   0.224   0.174   0.211   0.353   0.000
 1982 066    66   9.00  24.40  15.00 -99.000   2.298   0.005   2.293 -99.000 -99.000 -99.000   2.298   0.005   2.293   0.000   0.000  165.74   91.31    0.01   91.31    0.00    0.00   0.501   0.350   0.296   0.208   0.150   0.192   0.146   0.171   0.280   0.001
 1982 067    67  19.80  16.70   1.10 -99.000   4.029   0.018   4.011 -99.000 -99.000 -99.000   3.585   0.018   3.567   0.000   0.000  169.76   94.90    0.02   94.87    0.00    0.00   0.713   0.492   0.417   0.293   0.227   0.332   0.258   0.313   0.523   0.002
 1982 068    68  19.60  21.70   3.90 -99.000   4.183   0.022   4.160 -99.000 -99.000 -99.000   3.285   0.022   3.263   0.000   0.000  173.95   98.18    0.05   98.14    0.00    0.00   0.614   0.428   0.367   0.258   0.202   0.316   0.249   0.311   0.519   0.002
 1982 069    69  16.10  25.60  10.60 -99.000   3.773   0.025   3.748 -99.000 -99.000 -99.000   3.138   0.025   3.113   0.000   0.000  177.72  101.32    0.07  101.25    0.00    0.00   0.529   0.405   0.356   0.246   0.194   0.312   0.246   0.308   0.517   0.003
 1982 070    70  17.70  27.80   9.40 -99.000   4.164   0.030   4.134 -99.000 -99.000 -99.000   0.362   0.030   0.332   0.000   0.000  181.89  101.68    0.10  101.58    0.00    0.00   0.273   0.037   0.011   0.004   0.002   0.002   0.001   0.001   0.002   0.003
 1982 071    71  20.00  28.90  11.10 -99.000   4.799   0.037   4.762 -99.000 -99.000 -99.000   0.345   0.037   0.308   0.000   0.000  186.68  102.03    0.14  101.89    0.00    0.00   0.249   0.036   0.011   0.004   0.002   0.002   0.001   0.001   0.002   0.004
 1982 072    72  19.00  30.60  10.00 -99.000   4.580   0.046   4.533 -99.000 -99.000 -99.000   0.333   0.046   0.286   0.000   0.000  191.26  102.36    0.18  102.18    0.00    0.00   0.228   0.036   0.011   0.004   0.002   0.002   0.001   0.001   0.002   0.005
 1982 073    73  18.40  31.70  15.60 -99.000   4.655   0.077   4.578 -99.000 -99.000 -99.000   0.343   0.077   0.266   0.000   0.000  195.92  102.70    0.26  102.44    0.00    0.00   0.208   0.036   0.011   0.004   0.002   0.002   0.001   0.001   0.002   0.008
 1982 074    74  17.50  30.00  16.70 -99.000   4.354   0.088   4.266 -99.000 -99.000 -99.000   0.336   0.088   0.248   0.000   0.000  200.27  103.04    0.35  102.69    0.00    0.00   0.190   0.035   0.011   0.004   0.002   0.002   0.001   0.001   0.002   0.009
 1982 075    75  15.90  30.00  16.10 -99.000   3.918   0.094   3.824 -99.000 -99.000 -99.000   0.325   0.094   0.231   0.000   0.000  204.19  103.36    0.44  102.92    0.00    0.00   0.174   0.035   0.011   0.004   0.002   0.002   0.001   0.001   0.002   0.009
 1982 076    76  19.50  30.60  15.60 -99.000   4.794   0.163   4.631 -99.000 -99.000 -99.000   0.379   0.163   0.216   0.000   0.000  208.99  103.74    0.61  103.14    0.00    0.00   0.159   0.034   0.011   0.004   0.002   0.002   0.001   0.001   0.002   0.016
 1982 077    77  17.40  31.70  17.20 -99.000   4.359   0.202   4.157 -99.000 -99.000 -99.000   0.404   0.202   0.202   0.000   0.000  213.34  104.15    0.81  103.34    0.00    0.00   0.145   0.033   0.011   0.004   0.002   0.002   0.001   0.001   0.002   0.020
 1982 078    78  16.70  30.60  18.30 -99.000   4.149   0.228   3.921 -99.000 -99.000 -99.000   0.490   0.228   0.262   0.000   0.000  217.49  104.64    1.04  103.60    0.00    0.00   0.207   0.032   0.011   0.004   0.002   0.002   0.001   0.001   0.002   0.023
 1982 079    79  17.40  30.60  18.90 -99.000   4.504   0.307   4.197 -99.000 -99.000 -99.000   0.625   0.307   0.318   0.000   0.000  222.00  105.26    1.34  103.92    0.00    0.00   0.264   0.031   0.011   0.004   0.002   0.002   0.001   0.001   0.002   0.031
 1982 080    80  13.60  30.00  15.60 -99.000   3.376   0.301   3.075 -99.000 -99.000 -99.000   0.587   0.301   0.286   0.000   0.000  225.37  105.85    1.64  104.21    0.00    0.00   0.233   0.031   0.011   0.004   0.002   0.002   0.001   0.001   0.002   0.030
 1982 081    81  10.00  28.30  17.20 -99.000   2.444   0.261   2.182 -99.000 -99.000 -99.000   0.535   0.261   0.274   0.000   0.000  227.82  106.38    1.91  104.48    0.00    0.00   0.221   0.030   0.011   0.004   0.002   0.002   0.001   0.001   0.002   0.026
 1982 082    82  13.20  26.10  16.10 -99.000   3.116   0.390   2.726 -99.000 -99.000 -99.000   3.116   0.390   2.726   0.000   0.000  230.93  109.50    2.30  107.20    0.00    0.00   0.570   0.324   0.293   0.207   0.165   0.262   0.207   0.260   0.438   0.039
 1982 083    83   4.30  26.10  16.10 -99.000   1.100   0.158   0.942 -99.000 -99.000 -99.000   1.100   0.158   0.942   0.000   0.000  232.03  110.60    2.45  108.15    0.00    0.00   0.247   0.121   0.095   0.066   0.052   0.082   0.064   0.080   0.135   0.016
 1982 084    84  17.00  27.80  16.10 -99.000   4.439   0.734   3.705 -99.000 -99.000 -99.000   4.438   0.734   3.705   0.000   0.000  236.47  115.04    3.19  111.85    0.00    0.00   0.902   0.539   0.442   0.287   0.212   0.310   0.236   0.290   0.486   0.073
 1982 085    85  18.80  26.70  14.40 -99.000   4.693   0.903   3.789 -99.000 -99.000 -99.000   4.692   0.903   3.789   0.000   0.000  241.17  119.73    4.09  115.64    0.00    0.00   0.826   0.519   0.453   0.326   0.248   0.339   0.259   0.309   0.511   0.090
 1982 086    86  12.90  22.20   5.60 -99.000   2.767   0.600   2.167 -99.000 -99.000 -99.000   2.767   0.600   2.167   0.000   0.000  243.93  122.50    4.69  117.81    0.00    0.00   0.415   0.281   0.245   0.175   0.138   0.209   0.164   0.200   0.339   0.060
 1982 087    87   3.80  15.60   8.90 -99.000   0.750   0.171   0.579 -99.000 -99.000 -99.000   0.750   0.171   0.579   0.000   0.000  244.68  123.25    4.86  118.39    0.00    0.00   0.127   0.077   0.063   0.045   0.035   0.053   0.042   0.051   0.086   0.017
 1982 088    88   9.90  21.10  10.00 -99.000   2.244   0.523   1.720 -99.000 -99.000 -99.000   2.243   0.523   1.720   0.000   0.000  246.93  125.49    5.38  120.11    0.00    0.00   0.412   0.252   0.204   0.137   0.102   0.144   0.111   0.134   0.223   0.052
 1982 089    89  21.50  26.10  13.30 -99.000   5.280   1.322   3.957 -99.000 -99.000 -99.000   4.858   1.322   3.536   0.000   0.000  252.21  130.35    6.71  123.64    0.00    0.00   0.711   0.490   0.420   0.287   0.217   0.325   0.254   0.311   0.522   0.132
 1982 090    90  16.10  26.70  14.40 -99.000   3.824   1.094   2.729 -99.000 -99.000 -99.000   3.823   1.094   2.729   0.000   0.000  256.03  134.17    7.80  126.37    0.00    0.00   0.486   0.356   0.310   0.217   0.170   0.273   0.214   0.262   0.441   0.109
 1982 091    91  21.00  30.60  12.80 -99.000   5.066   1.640   3.424 -99.000 -99.000 -99.000   4.665   1.640   3.025   0.000   0.000  261.10  138.84    9.44  129.40    0.00    0.00   0.470   0.378   0.344   0.249   0.196   0.317   0.249   0.306   0.515   0.164
 1982 092    92  22.10  29.40  14.40 -99.000   5.227   1.922   3.302 -99.000 -99.000 -99.000   4.732   1.922   2.810   0.000   0.000  266.32  143.57   11.36  132.21    0.00    0.00   0.357   0.327   0.319   0.241   0.193   0.313   0.246   0.303   0.511   0.192
 1982 093    93  11.40  28.90  17.80 -99.000   2.718   1.130   1.586 -99.000 -99.000 -99.000   1.349   1.130   0.219   0.000   0.000  269.04  144.92   12.49  132.43    0.00    0.00   0.173   0.025   0.009   0.004   0.002   0.002   0.001   0.001   0.002   0.113
 1982 094    94  23.80  28.30   9.40 -99.000   5.242   2.445   2.794 -99.000 -99.000 -99.000   2.645   2.445   0.200   0.000   0.000  274.28  147.56   14.94  132.62    0.00    0.00   0.155   0.024   0.009   0.004   0.002   0.002   0.001   0.001   0.002   0.245
 1982 095    95  18.90  29.40  11.10 -99.000   4.251   2.140   2.108 -99.000 -99.000 -99.000   2.318   2.140   0.178   0.000   0.000  278.54  149.88   17.08  132.80    0.00    0.00   0.137   0.022   0.007   0.004   0.002   0.002   0.001   0.001   0.002   0.214
 1982 096    96  24.10  25.60  17.20 -99.000   5.410   2.952   2.454 -99.000 -99.000 -99.000   3.112   2.952   0.159   0.000   0.000  283.94  152.99   20.03  132.96    0.00    0.00   0.122   0.020   0.007   0.003   0.002   0.002   0.001   0.001   0.002   0.295
 1982 097    97  25.10  22.20   6.70 -99.000   4.928   2.845   2.079 -99.000 -99.000 -99.000   2.407   2.265   0.141   0.000   0.000  288.87  155.40   22.30  133.10    0.00    0.00   0.107   0.018   0.006   0.003   0.002   0.002   0.001   0.001   0.002   0.227
 1982 098    98   0.80  21.10  11.10 -99.000   0.161   0.095   0.066 -99.000 -99.000 -99.000   0.160   0.095   0.066   0.000   0.000  289.03  155.56   22.39  133.17    0.00    0.00   0.012   0.009   0.008   0.005   0.004   0.007   0.005   0.006   0.010   0.009
 1982 099    99   8.80  23.30  17.20 -99.000   2.020   1.230   0.788 -99.000 -99.000 -99.000   2.018   1.230   0.788   0.000   0.000  291.05  157.58   23.62  133.96    0.00    0.00   0.172   0.117   0.099   0.065   0.048   0.072   0.057   0.061   0.097   0.123
 1982 100   100   3.80  23.90  10.60 -99.000   0.824   0.530   0.293 -99.000 -99.000 -99.000   0.823   0.530   0.293   0.000   0.000  291.88  158.40   24.15  134.25    0.00    0.00   0.063   0.037   0.032   0.024   0.019   0.028   0.024   0.026   0.040   0.053
 1982 101   101  23.00  20.60   8.90 -99.000   4.684   3.119   1.561 -99.000 -99.000 -99.000   4.679   3.119   1.561   0.000   0.000  296.56  163.08   27.27  135.81    0.00    0.00   0.327   0.207   0.177   0.128   0.103   0.156   0.125   0.135   0.204   0.312
 1982 102   102  25.40  25.00   6.10 -99.000   5.315   3.624   1.686 -99.000 -99.000 -99.000   5.310   3.624   1.686   0.000   0.000  301.88  168.39   30.89  137.50    0.00    0.00   0.322   0.220   0.190   0.135   0.108   0.171   0.134   0.155   0.252   0.362
 1982 103   103  21.60  28.30  11.70 -99.000   4.837   3.399   1.435 -99.000 -99.000 -99.000   4.833   3.399   1.435   0.000   0.000  306.71  173.22   34.29  138.93    0.00    0.00   0.255   0.179   0.158   0.114   0.091   0.147   0.116   0.140   0.235   0.340
 1982 104   104  21.60  27.20  15.00 -99.000   4.856   3.560   1.293 -99.000 -99.000 -99.000   4.852   3.560   1.293   0.000   0.000  311.57  178.08   37.85  140.22    0.00    0.00   0.204   0.146   0.139   0.107   0.085   0.139   0.109   0.135   0.228   0.356
 1982 105   105  16.60  28.30  15.00 -99.000   3.752   2.851   0.898 -99.000 -99.000 -99.000   3.749   2.851   0.898   0.000   0.000  315.32  181.82   40.70  141.12    0.00    0.00   0.119   0.088   0.093   0.077   0.062   0.104   0.082   0.102   0.172   0.285
 1982 106   106  20.70  30.60  17.80 -99.000   4.883   3.841   1.038 -99.000 -99.000 -99.000   4.879   3.841   1.038   0.000   0.000  320.21  186.70   44.54  142.16    0.00    0.00   0.126   0.095   0.096   0.089   0.073   0.126   0.100   0.123   0.209   0.384
 1982 107   107  21.00  31.10  19.40 -99.000   5.021   4.085   0.931 -99.000 -99.000 -99.000   5.017   4.085   0.931   0.000   0.000  325.23  191.72   48.63  143.09    0.00    0.00   0.113   0.078   0.076   0.075   0.064   0.119   0.094   0.116   0.196   0.409
 1982 108   108  18.90  30.00  18.90 -99.000   4.445   3.714   0.728 -99.000 -99.000 -99.000   4.442   3.714   0.728   0.000   0.000  329.67  196.16   52.34  143.82    0.00    0.00   0.101   0.055   0.054   0.050   0.046   0.095   0.076   0.093   0.158   0.371
 1982 109   109  21.60  30.00  15.00 -99.000   4.928   4.211   0.712 -99.000 -99.000 -99.000   3.251   3.045   0.206   0.000   0.000  334.60  199.41   55.39  144.03    0.00    0.00   0.177   0.015   0.005   0.002   0.001   0.002   0.001   0.001   0.002   0.304
 1982 110   110  20.70  31.10  18.90 -99.000   4.905   4.227   0.674 -99.000 -99.000 -99.000   1.861   1.724   0.137   0.000   0.000  339.50  201.27   57.11  144.16    0.00    0.00   0.110   0.013   0.005   0.002   0.001   0.002   0.001   0.001   0.002   0.172
 1982 111   111  24.30  32.20  17.20 -99.000   5.751   4.978   0.768 -99.000 -99.000 -99.000   1.435   1.318   0.117   0.000   0.000  345.26  202.71   58.43  144.28    0.00    0.00   0.092   0.012   0.004   0.002   0.001   0.002   0.001   0.001   0.002   0.132
 1982 112   112  23.70  31.70  17.80 -99.000   5.603   4.837   0.762 -99.000 -99.000 -99.000   1.129   1.026   0.103   0.000   0.000  350.86  203.84   59.46  144.38    0.00    0.00   0.079   0.011   0.004   0.002   0.001   0.002   0.001   0.001   0.002   0.103
 1982 113   113   8.60  31.10  15.60 -99.000   1.988   1.716   0.270 -99.000 -99.000 -99.000   0.973   0.878   0.095   0.000   0.000  352.85  204.81   60.33  144.48    0.00    0.00   0.073   0.010   0.004   0.002   0.001   0.002   0.001   0.001   0.002   0.088
 1982 114   114   7.50  22.20  13.90 -99.000   1.540   1.329   0.209 -99.000 -99.000 -99.000   0.887   0.799   0.088   0.000   0.000  354.39  205.70   61.13  144.57    0.00    0.00   0.067   0.010   0.003   0.002   0.001   0.002   0.001   0.001   0.002   0.080
 1982 115   115   7.70  25.60  16.70 -99.000   1.685   1.449   0.234 -99.000 -99.000 -99.000   0.989   0.754   0.234   0.000   0.000  356.07  206.69   61.89  144.80    0.00    0.00   0.214   0.010   0.003   0.002   0.001   0.002   0.001   0.001   0.001   0.075
 1982 116   116  10.70  25.60  19.40 -99.000   2.417   2.077   0.339 -99.000 -99.000 -99.000   2.415   2.077   0.339   0.000   0.000  358.49  209.10   63.96  145.14    0.00    0.00   0.091   0.044   0.026   0.012   0.009   0.035   0.028   0.035   0.059   0.208
 1982 117   117  23.40  29.40  15.60 -99.000   5.369   4.667   0.697 -99.000 -99.000 -99.000   5.364   4.667   0.697   0.000   0.000  363.86  214.47   68.63  145.84    0.00    0.00   0.149   0.114   0.083   0.030   0.018   0.067   0.055   0.068   0.114   0.467
 1982 118   118  23.70  28.90  13.30 -99.000   5.287   4.633   0.649 -99.000 -99.000 -99.000   5.281   4.633   0.649   0.000   0.000  369.15  219.75   73.26  146.48    0.00    0.00   0.120   0.093   0.074   0.036   0.018   0.068   0.055   0.068   0.116   0.463
 1982 119   119  18.50  27.20  14.40 -99.000   4.068   3.586   0.477 -99.000 -99.000 -99.000   3.878   3.586   0.291   0.000   0.000  373.21  223.62   76.85  146.78    0.00    0.00   0.243   0.030   0.009   0.003   0.001   0.002   0.001   0.001   0.002   0.359
 1982 120   120  20.70  26.70  15.60 -99.000   4.557   4.038   0.514 -99.000 -99.000 -99.000   4.257   4.038   0.219   0.000   0.000  377.77  227.88   80.89  146.99    0.00    0.00   0.179   0.024   0.007   0.002   0.001   0.002   0.001   0.001   0.002   0.404
 1982 121   121  18.20  26.70  15.60 -99.000   4.000   3.561   0.435 -99.000 -99.000 -99.000   3.731   3.561   0.170   0.000   0.000  381.77  231.61   84.45  147.16    0.00    0.00   0.138   0.018   0.006   0.002   0.001   0.002   0.001   0.001   0.002   0.356
 1982 122   122  19.90  27.80  15.00 -99.000   4.405   3.927   0.474 -99.000 -99.000 -99.000   1.926   1.795   0.131   0.000   0.000  386.18  233.54   86.24  147.29    0.00    0.00   0.104   0.014   0.004   0.002   0.001   0.002   0.001   0.001   0.002   0.180
 1982 123   123  21.80  28.90  15.00 -99.000   4.887   4.330   0.551 -99.000 -99.000 -99.000   1.512   1.401   0.111   0.000   0.000  391.06  235.05   87.64  147.41    0.00    0.00   0.087   0.012   0.004   0.002   0.001   0.002   0.001   0.001   0.002   0.140
 1982 124   124  23.60  28.90  12.80 -99.000   5.204   4.564   0.635 -99.000 -99.000 -99.000   1.250   1.153   0.097   0.000   0.000  396.27  236.30   88.80  147.50    0.00    0.00   0.075   0.011   0.004   0.002   0.001   0.002   0.001   0.001   0.002   0.115
 1982 125   125  24.40  28.30  14.40 -99.000   5.413   4.673   0.735 -99.000 -99.000 -99.000   1.132   1.042   0.090   0.000   0.000  401.68  237.43   89.84  147.59    0.00    0.00   0.069   0.010   0.003   0.002   0.001   0.002   0.001   0.001   0.002   0.104
 1982 126   126  21.70  27.80  12.20 -99.000   4.708   4.000   0.703 -99.000 -99.000 -99.000   1.045   0.962   0.083   0.000   0.000  406.39  238.48   90.80  147.68    0.00    0.00   0.063   0.010   0.003   0.002   0.001   0.002   0.001   0.001   0.002   0.096
 1982 127   127  23.60  28.90  11.70 -99.000   5.172   4.283   0.884 -99.000 -99.000 -99.000   0.943   0.866   0.077   0.000   0.000  411.56  239.42   91.67  147.75    0.00    0.00   0.058   0.009   0.003   0.001   0.001   0.002   0.001   0.001   0.002   0.087
 1982 128   128  18.20  29.40  17.80 -99.000   4.207   3.405   0.798 -99.000 -99.000 -99.000   0.912   0.799   0.113   0.000   0.000  415.77  240.33   92.47  147.87    0.00    0.00   0.094   0.009   0.003   0.001   0.001   0.002   0.001   0.001   0.002   0.080
 1982 129   129  26.30  29.40  15.00 -99.000   5.976   4.658   1.313 -99.000 -99.000 -99.000   1.125   0.979   0.146   0.000   0.000  421.74  241.46   93.45  148.01    0.00    0.00   0.127   0.009   0.003   0.001   0.001   0.002   0.001   0.001   0.002   0.098
 1982 130   130  26.30  29.40  13.30 -99.000   5.898   4.423   1.470 -99.000 -99.000 -99.000   0.899   0.781   0.119   0.000   0.000  427.64  242.36   94.23  148.13    0.00    0.00   0.101   0.009   0.003   0.001   0.001   0.002   0.001   0.001   0.002   0.078
 1982 131   131  24.90  30.00  11.10 -99.000   5.530   4.047   1.479 -99.000 -99.000 -99.000   0.778   0.676   0.103   0.000   0.000  433.17  243.14   94.90  148.23    0.00    0.00   0.084   0.009   0.003   0.001   0.001   0.002   0.001   0.001   0.002   0.068
 1982 132   132  23.50  31.10  13.30 -99.000   5.381   3.833   1.544 -99.000 -99.000 -99.000   0.675   0.582   0.093   0.000   0.000  438.55  243.81   95.48  148.33    0.00    0.00   0.075   0.008   0.003   0.001   0.001   0.002   0.001   0.001   0.002   0.058
 1982 133   133  24.20  30.60  13.30 -99.000   5.517   3.801   1.712 -99.000 -99.000 -99.000   0.621   0.535   0.086   0.000   0.000  444.07  244.43   96.02  148.41    0.00    0.00   0.069   0.008   0.003   0.001   0.001   0.002   0.001   0.001   0.002   0.053
 1982 134   134  26.70  31.10  12.80 -99.000   6.108   4.038   2.066 -99.000 -99.000 -99.000   0.570   0.489   0.081   0.000   0.000  450.18  245.00   96.51  148.49    0.00    0.00   0.063   0.008   0.003   0.001   0.001   0.002   0.001   0.001   0.002   0.049
 1982 135   135  23.90  32.20  15.60 -99.000   5.661   3.580   2.077 -99.000 -99.000 -99.000   0.526   0.451   0.075   0.000   0.000  455.84  245.53   96.96  148.57    0.00    0.00   0.058   0.008   0.003   0.001   0.001   0.002   0.001   0.001   0.002   0.045
 1982 136   136  22.80  33.30  15.60 -99.000   5.474   3.300   2.171 -99.000 -99.000 -99.000   0.490   0.419   0.071   0.000   0.000  461.31  246.02   97.38  148.64    0.00    0.00   0.053   0.008   0.003   0.001   0.001   0.002   0.001   0.001   0.002   0.042
 1982 137   137  22.70  32.80  15.60 -99.000   5.430   3.113   2.313 -99.000 -99.000 -99.000   0.458   0.392   0.066   0.000   0.000  466.74  246.48   97.77  148.71    0.00    0.00   0.049   0.008   0.002   0.001   0.001   0.002   0.001   0.001   0.002   0.039
 1982 138   138  21.50  31.10  16.70 -99.000   5.097   2.772   2.322 -99.000 -99.000 -99.000   0.431   0.369   0.062   0.000   0.000  471.84  246.91   98.14  148.77    0.00    0.00   0.045   0.008   0.002   0.001   0.001   0.001   0.001   0.001   0.002   0.037
 1982 139   139  22.40  30.60  16.70 -99.000   5.289   2.741   2.545 -99.000 -99.000 -99.000   0.407   0.348   0.058   0.000   0.000  477.13  247.31   98.49  148.83    0.00    0.00   0.041   0.008   0.002   0.001   0.001   0.001   0.001   0.001   0.002   0.035
 1982 140   140  22.50  31.70  16.10 -99.000   5.353   2.774   2.576 -99.000 -99.000 -99.000   0.388   0.333   0.055   0.000   0.000  482.48  247.70   98.82  148.88    0.00    0.00   0.038   0.008   0.002   0.001   0.001   0.001   0.001   0.001   0.002   0.033
 1982 141   141  22.60  32.20  16.10 -99.000   5.407   2.802   2.602 -99.000 -99.000 -99.000   0.363   0.311   0.052   0.000   0.000  487.89  248.06   99.13  148.93    0.00    0.00   0.035   0.008   0.002   0.001   0.001   0.001   0.001   0.001   0.002   0.031
 1982 142   142  17.40  32.80  16.70 -99.000   4.208   2.181   2.025 -99.000 -99.000 -99.000   0.422   0.292   0.131   0.000   0.000  492.10  248.49   99.42  149.06    0.00    0.00   0.114   0.008   0.002   0.001   0.000   0.001   0.001   0.001   0.002   0.029
 1982 143   143  13.20  33.30  20.00 -99.000   3.332   1.727   1.604 -99.000 -99.000 -99.000   2.856   1.252   1.604   0.000   0.000  495.43  251.34  100.67  150.67    0.00    0.00   0.382   0.222   0.154   0.071   0.027   0.124   0.144   0.178   0.302   0.125
 1982 144   144  21.50  32.80  18.90 -99.000   5.586   2.895   2.688 -99.000 -99.000 -99.000   5.583   2.895   2.688   0.000   0.000  501.01  256.93  103.57  153.36    0.00    0.00   0.675   0.438   0.345   0.178   0.046   0.165   0.194   0.240   0.407   0.289
 1982 145   145  20.30  32.80  20.00 -99.000   5.287   2.740   2.544 -99.000 -99.000 -99.000   5.285   2.740   2.544   0.000   0.000  506.30  262.21  106.31  155.90    0.00    0.00   0.609   0.372   0.305   0.202   0.067   0.162   0.190   0.237   0.401   0.274
 1982 146   146  15.00  31.70  20.60 -99.000   3.854   1.997   1.855 -99.000 -99.000 -99.000   3.852   1.997   1.855   0.000   0.000  510.16  266.06  108.31  157.76    0.00    0.00   0.413   0.255   0.214   0.151   0.061   0.124   0.146   0.182   0.309   0.200
 1982 147   147  18.20  32.20  21.10 -99.000   4.688   2.430   2.256 -99.000 -99.000 -99.000   2.839   2.430   0.409   0.000   0.000  514.84  268.90  110.74  158.16    0.00    0.00   0.353   0.036   0.011   0.004   0.001   0.001   0.001   0.001   0.002   0.243
 1982 148   148  22.10  33.30  20.60 -99.000   5.691   2.950   2.739 -99.000 -99.000 -99.000   5.688   2.950   2.739   0.000   0.000  520.53  274.59  113.69  160.90    0.00    0.00   0.612   0.362   0.290   0.214   0.095   0.190   0.224   0.279   0.474   0.295
 1982 149   149  19.30  34.40  22.20 -99.000   5.156   2.673   2.481 -99.000 -99.000 -99.000   5.154   2.673   2.481   0.000   0.000  525.69  279.74  116.36  163.38    0.00    0.00   0.553   0.325   0.243   0.186   0.088   0.176   0.208   0.260   0.442   0.267
 1982 150   150   7.00  32.20  22.80 -99.000   1.810   0.938   0.871 -99.000 -99.000 -99.000   1.809   0.938   0.871   0.000   0.000  527.50  281.55  117.30  164.26    0.00    0.00   0.212   0.115   0.077   0.061   0.030   0.061   0.072   0.090   0.153   0.094
 1982 151   151  11.80  30.00  20.60 -99.000   3.018   1.564   1.452 -99.000 -99.000 -99.000   3.016   1.564   1.452   0.000   0.000  530.52  284.57  118.86  165.71    0.00    0.00   0.387   0.229   0.159   0.103   0.056   0.083   0.099   0.124   0.211   0.156
 1982 152   152  20.00  31.10  21.10 -99.000   5.226   2.708   2.515 -99.000 -99.000 -99.000   5.223   2.708   2.515   0.000   0.000  535.74  289.79  121.57  168.22    0.00    0.00   0.615   0.425   0.331   0.204   0.131   0.147   0.151   0.189   0.322   0.271
 1982 153   153  24.90  33.30  20.00 -99.000   6.585   3.411   3.170 -99.000 -99.000 -99.000   6.581   3.411   3.170   0.000   0.000  542.33  296.37  124.98  171.39    0.00    0.00   0.652   0.452   0.377   0.257   0.192   0.265   0.224   0.280   0.472   0.341
 1982 154   154  15.80  33.30  22.80 -99.000   4.150   2.149   1.999 -99.000 -99.000 -99.000   4.148   2.149   1.999   0.000   0.000  546.48  300.52  127.13  173.39    0.00    0.00   0.383   0.261   0.223   0.157   0.122   0.194   0.152   0.190   0.317   0.215
 1982 155   155  21.60  33.30  22.20 -99.000   5.674   2.935   2.736 -99.000 -99.000 -99.000   5.671   2.935   2.736   0.000   0.000  552.15  306.19  130.06  176.13    0.00    0.00   0.523   0.338   0.292   0.213   0.168   0.275   0.213   0.267   0.447   0.294
 1982 156   156  23.80  33.90  18.30 -99.000   6.059   3.128   2.927 -99.000 -99.000 -99.000   3.462   3.128   0.333   0.000   0.000  558.21  309.65  133.19  176.46    0.00    0.00   0.281   0.031   0.010   0.004   0.002   0.002   0.001   0.001   0.002   0.313
 1982 157   157  26.50  34.40  18.30 -99.000   6.728   3.462   3.263 -99.000 -99.000 -99.000   3.735   3.462   0.272   0.000   0.000  564.94  313.39  136.66  176.73    0.00    0.00   0.226   0.027   0.009   0.004   0.002   0.002   0.001   0.001   0.002   0.346
 1982 158   158  26.90  33.90  18.30 -99.000   6.756   3.452   3.300 -99.000 -99.000 -99.000   3.679   3.452   0.227   0.000   0.000  571.69  317.07  140.11  176.96    0.00    0.00   0.185   0.024   0.007   0.003   0.002   0.002   0.001   0.001   0.002   0.345
 1982 159   159  26.30  34.40  17.20 -99.000   6.566   3.314   3.249 -99.000 -99.000 -99.000   3.511   3.314   0.197   0.000   0.000  578.26  320.58  143.42  177.16    0.00    0.00   0.158   0.022   0.007   0.003   0.002   0.002   0.001   0.001   0.002   0.331
 1982 160   160  24.40  34.40  19.40 -99.000   6.172   3.048   3.121 -99.000 -99.000 -99.000   3.222   3.048   0.174   0.000   0.000  584.43  323.80  146.47  177.33    0.00    0.00   0.138   0.020   0.006   0.003   0.001   0.002   0.001   0.001   0.002   0.305
 1982 161   161  25.50  34.40  21.10 -99.000   6.515   3.106   3.407 -99.000 -99.000 -99.000   3.257   3.106   0.152   0.000   0.000  590.95  327.06  149.57  177.48    0.00    0.00   0.119   0.018   0.006   0.002   0.001   0.002   0.001   0.001   0.002   0.311
 1982 162   162  23.60  35.00  19.40 -99.000   5.982   2.818   3.161 -99.000 -99.000 -99.000   2.949   2.818   0.131   0.000   0.000  596.93  330.01  152.39  177.61    0.00    0.00   0.102   0.016   0.005   0.002   0.001   0.002   0.001   0.001   0.002   0.282
 1982 163   163  15.20  31.10  20.00 -99.000   3.706   1.745   1.960 -99.000 -99.000 -99.000   3.704   1.745   1.960   0.000   0.000  600.64  333.71  154.14  179.57    0.00    0.00   0.365   0.262   0.226   0.146   0.097   0.192   0.154   0.193   0.324   0.174
 1982 164   164  21.10  33.30  21.10 -99.000   5.712   2.686   3.023 -99.000 -99.000 -99.000   5.710   2.686   3.023   0.000   0.000  606.35  339.42  156.82  182.60    0.00    0.00   0.629   0.430   0.367   0.239   0.170   0.267   0.211   0.264   0.446   0.269
 1982 165   165  25.50  33.30  18.30 -99.000   6.558   3.077   3.478 -99.000 -99.000 -99.000   6.246   3.077   3.169   0.000   0.000  612.91  345.67  159.90  185.77    0.00    0.00   0.585   0.416   0.359   0.248   0.188   0.308   0.244   0.304   0.517   0.308
 1982 166   166  23.20  33.90  20.60 -99.000   6.026   2.816   3.208 -99.000 -99.000 -99.000   3.142   2.816   0.327   0.000   0.000  618.93  348.81  162.72  186.09    0.00    0.00   0.271   0.034   0.010   0.004   0.002   0.002   0.001   0.001   0.002   0.282
 1982 167   167  25.50  33.90  22.20 -99.000   6.645   3.080   3.563 -99.000 -99.000 -99.000   3.350   3.080   0.270   0.000   0.000  625.58  352.16  165.80  186.36    0.00    0.00   0.219   0.030   0.010   0.004   0.002   0.002   0.001   0.001   0.002   0.308
 1982 168   168   6.00  31.10  21.10 -99.000   1.500   0.684   0.815 -99.000 -99.000 -99.000   1.499   0.684   0.815   0.000   0.000  627.08  353.66  166.48  187.18    0.00    0.00   0.171   0.095   0.074   0.058   0.046   0.083   0.066   0.082   0.140   0.068
 1982 169   169  13.50  27.80  21.10 -99.000   3.458   1.541   1.916 -99.000 -99.000 -99.000   3.456   1.541   1.916   0.000   0.000  630.54  357.12  168.02  189.09    0.00    0.00   0.463   0.263   0.204   0.147   0.117   0.178   0.133   0.155   0.255   0.154
 1982 170   170  24.30  33.30  20.00 -99.000   6.556   2.833   3.721 -99.000 -99.000 -99.000   6.424   2.833   3.591   0.000   0.000  637.09  363.54  170.85  192.69    0.00    0.00   0.706   0.487   0.417   0.294   0.232   0.351   0.265   0.316   0.523   0.283
 1982 171   171  25.90  33.90  21.10 -99.000   6.869   2.857   4.009 -99.000 -99.000 -99.000   6.046   2.857   3.189   0.000   0.000  643.96  369.59  173.71  195.88    0.00    0.00   0.560   0.414   0.358   0.255   0.202   0.322   0.251   0.308   0.520   0.286
 1982 172   172  20.90  32.80  20.00 -99.000   5.376   2.146   3.227 -99.000 -99.000 -99.000   5.252   2.146   3.105   0.000   0.000  649.34  374.84  175.86  198.98    0.00    0.00   0.577   0.387   0.321   0.240   0.193   0.318   0.249   0.305   0.516   0.215
 1982 173   173  18.50  28.30  23.30 -99.000   4.737   1.833   2.903 -99.000 -99.000 -99.000   4.735   1.833   2.903   0.000   0.000  654.07  379.57  177.69  201.88    0.00    0.00   0.612   0.364   0.274   0.211   0.171   0.290   0.228   0.280   0.474   0.183
 1982 174   174  11.70  27.80  21.70 -99.000   2.949   1.109   1.839 -99.000 -99.000 -99.000   2.948   1.109   1.839   0.000   0.000  657.02  382.52  178.80  203.72    0.00    0.00   0.411   0.270   0.204   0.136   0.103   0.164   0.128   0.159   0.263   0.111
 1982 175   175  18.60  30.60  22.20 -99.000   5.024   1.842   3.181 -99.000 -99.000 -99.000   5.023   1.842   3.181   0.000   0.000  662.05  387.54  180.64  206.90    0.00    0.00   0.760   0.478   0.375   0.249   0.183   0.265   0.206   0.251   0.414   0.184
 1982 176   176  22.90  32.20  19.40 -99.000   6.143   2.169   3.972 -99.000 -99.000 -99.000   6.125   2.169   3.956   0.000   0.000  668.19  393.67  182.81  210.86    0.00    0.00   0.916   0.591   0.451   0.312   0.238   0.340   0.264   0.318   0.525   0.217
