*Summary of files opened during simulation

Unit  File
Num.  Variable Name
*DSSAT Cropping System Model Ver. 4.7.5.042   -develop    NOV 25, 2021; 10:20:41

 Unit  Filename
   21  FILEIO
   25  DSPRO
   11  FILEW
  501  OUTINFO
  502  SIMCDE
   22  DTACDE
  503  WARNING.OUT
  504  OUTWARN
  505  RUNLST
  506  OUTO
   10  FILEC
  507  OUTG
  508  OUTPN
  509  OUTS
  510  SEVAL
  511  FILECO2
  512  OUTWTH
  513  FILEF
   13  FILESS
  514  Mulch.OUT
  515  SWBAL
  516  OUTWAT
  517  OUTT
  518  OUTET
    8  FILEA
