*SIMULATION OVERVIEW FILE

*DSSAT Cropping System Model Ver. 4.7.5.042 -develop  NOV 25, 2021 10:20:41

*RUN   1        : RAINFED HIGH NITROGEN     MZIXM047 TEST0001    1
 MODEL          : MZIXM047 - Maize
 EXPERIMENT     : TEST0001 EX
 DATA PATH      :
 TREATMENT  1   : RAINFED HIGH NITROGEN     MZIXM047


 CROP           : Maize            CULTIVAR : 2650-2700 GDD    ECOTYPE :IB0001
 STARTING DATE  : JAN  1 1982
 PLANTING DATE  : FEB 25 1982      PLANTS/m2 :     9.5    ROW SPACING :  61.cm
 HARVEST DATE   : JUN 25 1982
 WEATHER        : UFGA   1982
 SOIL           : IBMZ910014     TEXTURE : -99   - Millhopper Fine Sand
 SOIL INITIAL C : DEPTH:180cm EXTR. H2O:161.0mm  NO3:  0.0kg/ha  NH4:  0.0kg/ha
 WATER BALANCE  : RAINFED
 IRRIGATION     : NOT IRRIGATED
 NITROGEN BAL.  : NOT SIMULATED ; NO N-STRESS
 N-FERTILIZER   :
 RESIDUE/MANURE :
 ENVIRONM. OPT. : DAYL=    0.00  SRAD=    0.00  TMAX=    0.00  TMIN=    0.00
                  RAIN=    0.00  CO2 =    0.00  DEW =    0.00  WIND=    0.00
 SIMULATION OPT : WATER   :Y  NITROGEN:N  N-FIX:N  PHOSPH :N  PESTS  :N
                  PHOTO   :R  ET      :R  INFIL:S  HYDROL :R  SOM    :G
                  CO2 341ppm  NSWIT   :1  EVAP :S  SOIL   :2  STEMP  :D
 MANAGEMENT OPT : PLANTING:R  IRRIG   :N  FERT :N  RESIDUE:N  HARVEST:R
                  WEATHER :M  TILLAGE :Y

*SUMMARY OF SOIL AND GENETIC INPUT PARAMETERS

   SOIL LOWER UPPER   SAT  EXTR  INIT   ROOT   BULK     pH    NO3    NH4    ORG
  DEPTH LIMIT LIMIT    SW    SW    SW   DIST   DENS                          C
   cm   cm3/cm3    cm3/cm3    cm3/cm3         g/cm3         ugN/g  ugN/g     %
-------------------------------------------------------------------------------
  0-  5 0.026 0.096 0.230 0.070 0.086   1.00   1.30   0.00   0.10   0.50   2.00
  5- 15 0.025 0.086 0.230 0.061 0.086   1.00   1.30   0.00   0.10   0.50   1.00
 15- 30 0.025 0.086 0.230 0.061 0.086   0.70   1.40   0.00   0.10   0.50   1.00
 30- 45 0.025 0.086 0.230 0.061 0.086   0.30   1.40   0.00   0.10   0.50   0.50
 45- 60 0.025 0.086 0.230 0.061 0.086   0.30   1.40   0.00   0.10   0.50   0.50
 60- 90 0.028 0.090 0.230 0.062 0.076   0.05   1.45   0.00   0.10   0.60   0.10
 90-120 0.028 0.090 0.230 0.062 0.076   0.03   1.45   0.00   0.10   0.50   0.10
120-150 0.029 0.130 0.230 0.101 0.130   0.00   1.45   0.00   0.10   0.50   0.04
150-180 0.070 0.258 0.360 0.188 0.258   0.00   1.20   0.00   0.10   0.50   0.24

TOT-180   6.2  22.2  45.3  16.1  21.4  <--cm   -  kg/ha-->    0.0    0.0      0
SOIL ALBEDO    : 0.18      EVAPORATION LIMIT : 2.00         MIN. FACTOR  : 1.00
RUNOFF CURVE # :60.00      DRAINAGE RATE     : 0.65         FERT. FACTOR : 0.92

 Maize      CULTIVAR :PC0003-2650-2700 GDD      ECOTYPE :IB0001
 P1     : 212.00  P2     : 0.7500  P5     : 850.00  AX     : 723.3
 G2     : 800.00  G3     :  8.500  PHINT  : 49.000  LX     : 805.6


*SIMULATED CROP AND SOIL STATUS AT MAIN DEVELOPMENT STAGES

 RUN NO.     1     RAINFED HIGH NITROGEN   

        CROP GROWTH     BIOMASS         LEAF   CROP N     STRESS      STRESS                                           
   DATE  AGE STAGE        kg/ha    LAI   NUM  kg/ha  %   H2O  Nitr Phos1 Phos2  RSTG                                   
 ------  --- ----------   -----  -----  ----  ---  ---  ----  ----  ----  ----  ----                                   
  1 JAN    0 Start Sim        0   0.00   0.0    0  0.0  0.00  0.00  0.00  0.00     7
 25 FEB    0 Sowing           0   0.00   0.0    0  0.0  0.00  0.00  0.00  0.00     8
 26 FEB    1 Germinate        0   0.00   0.0    0  0.0  0.00  0.00  0.00  0.00     9
  6 MAR    9 Emergence       42   0.00   0.9    0  0.0  0.00  0.00  0.00  0.00     1
 22 MAR   25 End Juveni     172   0.20   5.5    0  0.0  0.00  0.00  0.00  0.00     2
 27 MAR   30 Floral Ini     332   0.38   6.7    0  0.0  0.00  0.00  0.00  0.00     3
  9 MAY   73 75% Silkin    5528   2.03  15.8    0  0.0  0.29  0.00  0.00  0.00     4
 20 MAY   84 Beg Gr Fil    5533   1.07  15.8    0  0.0  0.91  0.00  0.00  0.00     5
 24 JUN  119 End Gr Fil    7729   0.64  15.8    0  0.0  0.08  0.00  0.00  0.00     6
 25 JUN  120 Harvest       7752   0.59  15.8    0  0.0  0.00  0.00  0.00  0.00     6


*MAIN GROWTH AND DEVELOPMENT VARIABLES

@     VARIABLE                                         SIMULATED     MEASURED
      --------                                         ---------     --------
      Anthesis day (dap)                                      73          -99
      Physiological maturity day (dap)                       -99          -99
      Yield at harvest maturity (kg [dm]/ha)                3097          -99
      Number at maturity (no/m2)                            1171          -99
      Unit wt at maturity (g [dm]/unit)                   0.2644          -99
      Number at maturity (no/unit)                         210.7          -99
      Tops weight at maturity (kg [dm]/ha)                  7752          -99
      By-product produced (stalk) at maturity (kg[dm]/ha    5115          -99
      Leaf area index, maximum                              3.25          -99
      Harvest index at maturity                            0.400          -99
      Grain N at maturity (kg/ha)                              0          -99
      Tops N at maturity (kg/ha)                               0          -99
      Stem N at maturity (kg/ha)                               0          -99
      Grain N at maturity (%)                                0.0          -99
      Tops weight at anthesis (kg [dm]/ha)                  5518          -99
      Tops N at anthesis (kg/ha)                               0          -99
      Leaf number per stem at maturity                     15.76          -99
      Emergence day (dap)                                      9          -99


*ENVIRONMENTAL AND STRESS FACTORS

 |-----Development Phase------|--------------------------------------Environment--------------------------------------|-----------------Stress-----------------|
                              |---------------Average--------------|-----Cumulative-----|--------Count of days--------|          (0=Min, 1=Max Stress)         |
                         Time  Temp  Temp  Temp Solar Photop                Evapo    Pot TMIN TMIN TMAX TMAX TMAX RAIN|----Water----|---Nitrogen--|-Phosphorus-|
                         Span   Max   Min  Mean   Rad  [day]    CO2   Rain  Trans     ET   <    <    >    >    >    >   Photo         Photo         Photo
                         days    øC    øC    øC MJ/m2     hr    ppm     mm     mm     mm  0øC  2øC 30øC 32øC 34øC  0mm  synth Growth  synth Growth  synth Growth
----------------------------------------------------------------------------------------------------------------------------------------------------------------
 Emergence-End Juvenile    16  27.9  13.2  20.5  16.7  11.73  340.8   51.1   19.5   64.6    0    1    6    0    0    3  0.000  0.000  0.000  0.000  0.000  0.000
 End Juvenil-Floral Init    5  27.0  16.0  21.5  12.7  12.05  340.8   43.0   13.9   15.8    0    0    0    0    0    5  0.000  0.000  0.000  0.000  0.000  0.000
 Floral Init-End Lf Grow   43  27.1  14.0  20.5  18.0  12.76  340.9  258.2  120.6  174.6    0    0    7    1    0   12  0.209  0.270  0.000  0.000  0.000  0.000
 End Lf Grth-Beg Grn Fil   11  31.1  14.5  22.8  24.1  13.46  340.9    0.0    7.0   61.4    0    0    8    3    0    0  0.851  0.902  0.000  0.000  0.000  0.000
 Grain Filling Phase       35  32.6  20.1  26.4  20.0  13.80  341.0  256.2  135.2  179.9    0    0   31   26    6   16  0.083  0.103  0.000  0.000  0.000  0.000
   
 Planting to Harvest      120  29.0  15.5  22.3  18.3  12.86  340.9  623.3  304.2  524.1    0    2   53   30    6   38  0.177  0.209  0.000  0.000  0.000  0.000
----------------------------------------------------------------------------------------------------------------------------------------------------------------


*Resource Productivity
 Growing season length: 120 days 

 Precipitation during growing season       623.3 mm[rain]
   Dry Matter Productivity                  1.24 kg[DM]/m3[rain]          =   12.4 kg[DM]/ha per mm[rain]
   Yield Productivity                       0.50 kg[grain yield]/m3[rain] =    5.0 kg[yield]/ha per mm[rain]

 Evapotranspiration during growing season  304.2 mm[ET]
   Dry Matter Productivity                  2.55 kg[DM]/m3[ET]            =   25.5 kg[DM]/ha per mm[ET]
   Yield Productivity                       1.02 kg[grain yield]/m3[ET]   =   10.2 kg[yield]/ha per mm[ET]

 Transpiration during growing season       182.8 mm[EP]
   Dry Matter Productivity                  4.24 kg[DM]/m3[EP]            =   42.4 kg[DM]/ha per mm[EP]
   Yield Productivity                       1.69 kg[grain yield]/m3[EP]   =   16.9 kg[yield]/ha per mm[EP]

--------------------------------------------------------------------------------------------------------------

                     Maize YIELD :     3097 kg/ha    [Dry weight] 

**************************************************************************************************************
