*GROWTH ASPECTS OUTPUT FILE

*DSSAT Cropping System Model Ver. 4.7.5.042 -develop  NOV 25, 2021 10:20:41
!                                                                                                                                                                                                                                      Root Dens. (cm/cm3) by soil depth (cm):
!                                                                                                                                                                                                                                      0-5    5-15   15-30   30-45   45-60   60-90  90-120 120-150 150-180
@YEAR DOY   DAS   DAP   L#SD   GSTD   LAID   LWAD   SWAD   GWAD   RWAD   VWAD   CWAD   G#AD   GWGD   HIAD   PWAD   P#AD   WSPD   WSGD   NSTD   EWSD  PST1A  PST2A   KSTD   LN%D   SH%D   HIPD   PWDD   PWTD     SLAD   CHTD   CWID   RDPD    RL1D    RL2D    RL3D    RL4D    RL5D    RL6D    RL7D    RL8D    RL9D   CDAD   LDAD   SDAD   SNW0C   SNW1C  DTTD
 1982 056    56     0    0.0      0   0.00      0      0      0      0      0      0      0    0.0  0.000      0      0  0.000  0.000  0.000  0.000  0.000  0.000  1.000   0.00   0.00   0.00      0      0      0.0   0.00   0.00   0.05    0.00    0.00    0.00    0.00    0.00    0.00    0.00    0.00    0.00      0      0      0       0       0 11.82
 1982 057    57     1    0.0      0   0.00      0      0      0      0      0      0      0    0.0  0.000      0      0  0.000  0.000  0.000  0.000  0.000  0.000  1.000   0.00   0.00   0.00      0      0      0.0   0.00   0.00   0.07    0.00    0.00    0.00    0.00    0.00    0.00    0.00    0.00    0.00      0      0      0       0       0 10.82
 1982 058    58     2    0.0      0   0.00      0      0      0      0      0      0      0    0.0  0.000      0      0  0.000  0.000  0.000  0.000  0.000  0.000  1.000   0.00   0.00   0.00      0      0      0.0   0.00   0.00   0.08    0.00    0.00    0.00    0.00    0.00    0.00    0.00    0.00    0.00      0      0      0       0       0  9.65
 1982 059    59     3    0.0      0   0.00      0      0      0      0      0      0      0    0.0  0.000      0      0  0.000  0.000  0.000  0.000  0.000  0.000  1.000   0.00   0.00   0.00      0      0      0.0   0.00   0.00   0.10    0.00    0.00    0.00    0.00    0.00    0.00    0.00    0.00    0.00      0      0      0       0       0 12.23
 1982 060    60     4    0.0      0   0.00      0      0      0      0      0      0      0    0.0  0.000      0      0  0.000  0.000  0.000  0.000  0.000  0.000  1.000   0.00   0.00   0.00      0      0      0.0   0.00   0.00   0.11    0.00    0.00    0.00    0.00    0.00    0.00    0.00    0.00    0.00      0      0      0       0       0  5.38
 1982 061    61     5    0.0      0   0.00      0      0      0      0      0      0      0    0.0  0.000      0      0  0.000  0.000  0.000  0.000  0.000  0.000  1.000   0.00   0.00   0.00      0      0      0.0   0.00   0.00   0.12    0.00    0.00    0.00    0.00    0.00    0.00    0.00    0.00    0.00      0      0      0       0       0  5.82
 1982 062    62     6    0.0      0   0.00      0      0      0      0      0      0      0    0.0  0.000      0      0  0.000  0.000  0.000  0.000  0.000  0.000  1.000   0.00   0.00   0.00      0      0      0.0   0.00   0.00   0.13    0.00    0.00    0.00    0.00    0.00    0.00    0.00    0.00    0.00      0      0      0       0       0  8.88
 1982 063    63     7    0.0      0   0.00      0      0      0      0      0      0      0    0.0  0.000      0      0  0.000  0.000  0.000  0.000  0.000  0.000  1.000   0.00   0.00   0.00      0      0      0.0   0.00   0.00   0.15    0.00    0.00    0.00    0.00    0.00    0.00    0.00    0.00    0.00      0      0      0       0       0 12.04
 1982 064    64     8    0.0      0   0.00      0      0      0      0      0      0      0    0.0  0.000      0      0  0.000  0.000  0.000  0.000  0.000  0.000  1.000   0.00   0.00   0.00      0      0      0.0   0.00   0.00   0.17    0.00    0.00    0.00    0.00    0.00    0.00    0.00    0.00    0.00      0      0      0       0       0 14.07
 1982 065    65     9    1.0      1   0.00     20     22      0     21     42     42      0    0.0  0.000      0      0  0.000  0.000  0.000  0.000  0.000  0.000  1.000   0.00   0.00   0.00      0      0     16.8   0.00   0.00   0.18    0.39    0.20    0.02    0.00    0.00    0.00    0.00    0.00    0.00      0      0      0       0       0 12.83
 1982 066    66    10    1.0      1   0.01     21     22      0     21     43     43      0    0.0  0.000      0      0  0.000  0.000  0.000  0.000  0.000  0.000  1.000   0.00   0.00   0.00      0      0     31.1   0.00   0.00   0.19    0.39    0.20    0.02    0.00    0.00    0.00    0.00    0.00    0.00      0      0      0       0       0 11.93
 1982 067    67    11    1.0      1   0.01     21     22      0     21     43     43      0    0.0  0.000      0      0  0.000  0.000  0.000  0.000  0.000  0.000  1.000   0.00   0.00   0.00      0      0     36.9   0.00   0.00   0.19    0.39    0.20    0.02    0.00    0.00    0.00    0.00    0.00    0.00      0      0      0       0       0  2.79
 1982 068    68    12    1.0      1   0.01     22     23      0     22     45     45      0    0.0  0.000      0      0  0.000  0.000  0.000  0.000  0.000  0.000  1.000   0.00   0.00   0.00      0      0     45.1   0.00   0.00   0.20    0.39    0.20    0.02    0.00    0.00    0.00    0.00    0.00    0.00      0      0      0       0       0  6.24
 1982 069    69    13    2.0      1   0.01     22     24      0     22     46     46      0    0.0  0.000      0      0  0.000  0.000  0.000  0.000  0.000  0.000  1.000   0.00   0.00   0.00      0      0     48.3   0.00   0.00   0.21    0.39    0.20    0.02    0.00    0.00    0.00    0.00    0.00    0.00      0      0      0       0       0 11.03
 1982 070    70    14    2.0      1   0.01     22     26      0     23     48     48      0    0.0  0.000      0      0  0.000  0.000  0.000  0.000  0.000  0.000  1.000   0.00   0.00   0.00      0      0     50.6   0.00   0.00   0.22    0.39    0.21    0.02    0.00    0.00    0.00    0.00    0.00    0.00      0      0      0       0       0 11.90
 1982 071    71    15    2.0      1   0.01     24     27      0     24     51     51      0    0.0  0.000      0      0  0.000  0.000  0.000  0.000  0.000  0.000  1.000   0.00   0.00   0.00      0      0     62.6   0.00   0.00   0.23    0.40    0.21    0.02    0.00    0.00    0.00    0.00    0.00    0.00      0      0      0       0       0 13.48
 1982 072    72    16    2.0      1   0.02     27     28      0     26     55     55      0    0.0  0.000      0      0  0.000  0.000  0.000  0.000  0.000  0.000  1.000   0.00   0.00   0.00      0      0     91.0   0.00   0.00   0.24    0.40    0.22    0.02    0.00    0.00    0.00    0.00    0.00    0.00      0      0      0       0       0 13.90
 1982 073    73    17    3.0      1   0.03     29     31      0     28     60     60      0    0.0  0.000      0      0  0.000  0.000  0.000  0.000  0.000  0.000  1.000   0.00   0.00   0.00      0      0    104.2   0.00   0.00   0.25    0.41    0.23    0.03    0.00    0.00    0.00    0.00    0.00    0.00      0      0      0       0       0 16.85
 1982 074    74    18    3.0      1   0.04     31     35      0     31     66     66      0    0.0  0.000      0      0  0.000  0.000  0.000  0.000  0.000  0.000  1.000   0.00   0.00   0.00      0      0    114.1   0.00   0.00   0.27    0.42    0.24    0.03    0.00    0.00    0.00    0.00    0.00    0.00      0      0      0       0       0 16.28
 1982 075    75    19    3.0      1   0.05     36     37      0     35     73     73      0    0.0  0.000      0      0  0.000  0.000  0.000  0.000  0.000  0.000  1.000   0.00   0.00   0.00      0      0    138.4   0.00   0.00   0.28    0.43    0.25    0.04    0.00    0.00    0.00    0.00    0.00    0.00      0      0      0       0       0 15.90
 1982 076    76    20    4.0      1   0.07     45     40      0     40     84     84      0    0.0  0.000      0      0  0.000  0.000  0.000  0.000  0.000  0.000  1.000   0.00   0.00   0.00      0      0    155.3   0.00   0.00   0.29    0.45    0.27    0.06    0.00    0.00    0.00    0.00    0.00    0.00      0      0      0       0       0 16.30
 1982 077    77    21    4.0      1   0.08     50     47      0     46     97     97      0    0.0  0.000      0      0  0.000  0.000  0.000  0.000  0.000  0.000  1.000   0.00   0.00   0.00      0      0    163.9   0.00   0.00   0.31    0.47    0.29    0.07    0.00    0.00    0.00    0.00    0.00    0.00      0      0      0       0       0 17.45
 1982 078    78    22    4.0      1   0.10     59     53      0     53    112    112      0    0.0  0.000      0      0  0.000  0.000  0.000  0.000  0.000  0.000  1.000   0.00   0.00   0.00      0      0    173.6   0.00   0.00   0.32    0.49    0.32    0.09    0.00    0.00    0.00    0.00    0.00    0.00      0      0      0       0       0 17.26
 1982 079    79    23    5.0      1   0.14     74     58      0     63    133    133      0    0.0  0.000      0      0  0.000  0.000  0.000  0.000  0.000  0.000  1.000   0.00   0.00   0.00      0      0    183.5   0.00   0.00   0.33    0.53    0.36    0.12    0.00    0.00    0.00    0.00    0.00    0.00      0      0      0       0       0 17.56
 1982 080    80    24    5.0      1   0.17     86     67      0     73    153    153      0    0.0  0.000      0      0  0.000  0.000  0.000  0.000  0.000  0.000  1.000   0.00   0.00   0.00      0      0    191.7   0.00   0.00   0.34    0.56    0.39    0.14    0.00    0.00    0.00    0.00    0.00    0.00      0      0      0       0       0 15.51
 1982 081    81    25    5.0      2   0.20     97     75      0     82    172    172      0    0.0  0.000      0      0  0.000  0.000  0.000  0.000  0.000  0.000  1.000   0.00   0.00   0.00      0      0    200.4   0.00   0.00   0.36    0.59    0.42    0.16    0.01    0.00    0.00    0.00    0.00    0.00      0      0      0       0       0 15.08
 1982 082    82    26    6.0      2   0.23    111     87      0     95    199    199      0    0.0  0.000      0      0  0.000  0.000  0.000  0.000  0.000  0.000  1.000   0.00   0.00   0.00      0      0    203.6   0.00   0.00   0.38    0.63    0.47    0.19    0.01    0.00    0.00    0.00    0.00    0.00      0      0      0       0       0 13.57
 1982 083    83    27    6.0      2   0.26    120     91      0    100    211    211      0    0.0  0.000      0      0  0.000  0.000  0.000  0.000  0.000  0.000  1.000   0.00   0.00   0.00      0      0    219.7   0.00   0.00   0.39    0.65    0.48    0.21    0.02    0.00    0.00    0.00    0.00    0.00      0      0      0       0       0 13.10
 1982 084    84    28    6.0      2   0.31    145    105      0    119    251    251      0    0.0  0.000      0      0  0.000  0.000  0.000  0.000  0.000  0.000  1.000   0.00   0.00   0.00      0      0    215.0   0.00   0.00   0.41    0.71    0.55    0.25    0.03    0.00    0.00    0.00    0.00    0.00      0      0      0       0       0 14.73
 1982 085    85    29    7.0      2   0.36    172    125      0    142    297    297      0    0.0  0.000      0      0  0.000  0.000  0.000  0.000  0.000  0.000  1.000   0.00   0.00   0.00      0      0    207.9   0.00   0.00   0.42    0.79    0.62    0.31    0.05    0.00    0.00    0.00    0.00    0.00      0      0      0       0       0 13.49
 1982 086    86    30    7.0      3   0.38    183    149      0    158    332    332      0    0.0  0.000      0      0  0.000  0.000  0.000  0.000  0.000  0.000  1.000   0.00   0.00   0.00      0      0    206.4   0.00   0.00   0.43    0.84    0.68    0.34    0.06    0.00    0.00    0.00    0.00    0.00      0      0      0       0       0  6.65
 1982 087    87    31    7.0      3   0.39    187    159      0    164    346    346      0    0.0  0.000      0      0  0.000  0.000  0.000  0.000  0.000  0.000  1.000   0.00   0.00   0.00      0      0    206.9   0.00   0.00   0.43    0.86    0.69    0.36    0.07    0.00    0.00    0.00    0.00    0.00      0      0      0       0       0  4.23
 1982 088    88    32    7.0      3   0.42    202    180      0    181    383    383      0    0.0  0.000      0      0  0.000  0.000  0.000  0.000  0.000  0.000  1.000   0.00   0.00   0.00      0      0    207.8   0.00   0.00   0.44    0.91    0.75    0.40    0.08    0.00    0.00    0.00    0.00    0.00      0      0      0       0       0  7.88
 1982 089    89    33    7.0      3   0.49    246    206      0    213    452    452      0    0.0  0.000      0      0  0.000  0.000  0.000  0.000  0.000  0.000  1.000   0.00   0.00   0.00      0      0    200.0   0.00   0.00   0.46    1.01    0.85    0.47    0.12    0.00    0.00    0.00    0.00    0.00      0      0      0       0       0 12.86
 1982 090    90    34    8.0      3   0.57    286    233      0    242    519    519      0    0.0  0.000      0      0  0.000  0.000  0.000  0.000  0.000  0.000  1.000   0.00   0.00   0.00      0      0    199.5   0.00   0.00   0.47    1.11    0.94    0.53    0.14    0.00    0.00    0.00    0.00    0.00      0      0      0       0       0 13.32
 1982 091    91    35    8.0      3   0.67    342    270      0    282    612    612      0    0.0  0.000      0      0  0.000  0.000  0.000  0.000  0.000  0.000  1.000   0.00   0.00   0.00      0      0    195.8   0.00   0.00   0.49    1.23    1.07    0.62    0.18    0.01    0.00    0.00    0.00    0.00      0      0      0       0       0 15.27
 1982 092    92    36    8.0      3   0.79    407    313      0    326    720    720      0    0.0  0.000      0      0  0.000  0.000  0.000  0.000  0.000  0.000  1.000   0.00   0.00   0.00      0      0    193.1   0.00   0.00   0.50    1.36    1.20    0.72    0.22    0.03    0.00    0.00    0.00    0.00      0      0      0       0       0 15.31
 1982 093    93    37    8.0      3   0.92    454    347      0    358    802    802      0    0.0  0.000      0      0  0.000  0.000  0.000  0.000  0.000  0.000  1.000   0.00   0.00   0.00      0      0    202.1   0.00   0.00   0.52    1.46    1.30    0.78    0.25    0.04    0.00    0.00    0.00    0.00      0      0      0       0       0 15.76
 1982 094    94    38    9.0      3   1.02    522    409      0    409    932    932      0    0.0  0.000      0      0  0.000  0.000  0.000  0.000  0.000  0.000  1.000   0.00   0.00   0.00      0      0    195.9   0.00   0.00   0.53    1.59    1.45    0.89    0.30    0.07    0.00    0.00    0.00    0.00      0      0      0       0       0 12.80
 1982 095    95    39    9.0      3   1.15    593    476      0    460   1069   1069      0    0.0  0.000      0      0  0.000  0.000  0.000  0.000  0.000  0.000  1.000   0.00   0.00   0.00      0      0    194.6   0.00   0.00   0.55    1.69    1.61    1.00    0.34    0.10    0.00    0.00    0.00    0.00      0      0      0       0       0 13.66
 1982 096    96    40    9.0      3   1.26    661    553      0    512   1213   1213      0    0.0  0.000      0      0  0.000  0.252  0.000  0.000  0.000  0.000  1.000   0.00   0.00   0.00      0      0    190.6   0.00   0.00   0.57    1.76    1.78    1.12    0.40    0.14    0.00    0.00    0.00    0.00      0      0      0       0       0 14.28
 1982 097    97    41    9.0      3   1.30    694    586      0    549   1280   1280      0    0.0  0.000      0      0  0.204  0.470  0.000  0.000  0.000  0.000  1.000   0.00   0.00   0.00      0      0    187.6   0.00   0.00   0.57    1.79    1.89    1.20    0.43    0.17    0.00    0.00    0.00    0.00      0      0      0       0       0  8.16
 1982 098    98    42   10.0      3   1.37    703    588      0    550   1291   1291      0    0.0  0.000      0      0  0.000  0.000  0.000  0.000  0.000  0.000  1.000   0.00   0.00   0.00      0      0    195.4   0.00   0.00   0.58    1.79    1.90    1.20    0.43    0.17    0.00    0.00    0.00    0.00      0      0      0       0       0  7.91
 1982 099    99    43   10.0      3   1.51    749    630      0    578   1379   1379      0    0.0  0.000      0      0  0.000  0.000  0.000  0.000  0.000  0.000  1.000   0.00   0.00   0.00      0      0    201.5   0.00   0.00   0.60    1.87    1.98    1.26    0.46    0.20    0.00    0.00    0.00    0.00      0      0      0       0       0 12.39
 1982 100   100    44   10.0      3   1.60    776    651      0    592   1426   1426      0    0.0  0.000      0      0  0.000  0.000  0.000  0.000  0.000  0.000  1.000   0.00   0.00   0.00      0      0    206.7   0.00   0.00   0.61    1.90    2.01    1.28    0.47    0.21    0.00    0.00    0.00    0.00      0      0      0       0       0  9.21
 1982 101   101    45   10.0      3   1.67    833    760      0    645   1593   1593      0    0.0  0.000      0      0  0.000  0.000  0.000  0.000  0.000  0.000  1.000   0.00   0.00   0.00      0      0    201.1   0.00   0.00   0.61    2.05    2.16    1.39    0.51    0.26    0.00    0.00    0.00    0.00      0      0      0       0       0  7.91
 1982 102   102    46   10.0      3   1.77    910    885      0    708   1795   1795      0    0.0  0.000      0      0  0.000  0.000  0.000  0.000  0.000  0.000  1.000   0.00   0.00   0.00      0      0    194.9   0.00   0.00   0.61    2.23    2.34    1.51    0.57    0.31    0.00    0.00    0.00    0.00      0      0      0       0       0  9.66
 1982 103   103    47   11.0      3   1.93   1003   1017      0    777   2020   2020      0    0.0  0.000      0      0  0.000  0.000  0.000  0.000  0.000  0.000  1.000   0.00   0.00   0.00      0      0    192.5   0.00   0.00   0.62    2.42    2.53    1.65    0.62    0.37    0.00    0.00    0.00    0.00      0      0      0       0       0 13.52
 1982 104   104    48   11.0      3   2.09   1095   1159      0    845   2254   2254      0    0.0  0.000      0      0  0.000  0.000  0.000  0.000  0.000  0.000  1.000   0.00   0.00   0.00      0      0    190.5   0.00   0.00   0.63    2.62    2.72    1.78    0.68    0.43    0.00    0.00    0.00    0.00      0      0      0       0       0 13.10
 1982 105   105    49   11.0      3   2.26   1178   1284      0    903   2462   2462      0    0.0  0.000      0      0  0.000  0.000  0.000  0.000  0.000  0.000  1.000   0.00   0.00   0.00      0      0    191.8   0.00   0.00   0.63    2.78    2.88    1.90    0.73    0.48    0.00    0.00    0.00    0.00      0      0      0       0       0 13.65
 1982 106   106    50   12.0      3   2.46   1280   1439      0    972   2719   2719      0    0.0  0.000      0      0  0.000  0.000  0.000  0.000  0.000  0.000  1.000   0.00   0.00   0.00      0      0    192.0   0.00   0.00   0.64    2.97    3.08    2.03    0.79    0.54    0.00    0.00    0.00    0.00      0      0      0       0       0 16.20
 1982 107   107    51   12.0      3   2.64   1379   1614      0   1042   2993   2993      0    0.0  0.000      0      0  0.000  0.000  0.000  0.000  0.000  0.000  1.000   0.00   0.00   0.00      0      0    191.4   0.00   0.00   0.65    3.17    3.27    2.17    0.85    0.60    0.00    0.00    0.00    0.00      0      0      0       0       0 17.25
 1982 108   108    52   12.0      3   2.82   1474   1781      0   1106   3255   3255      0    0.0  0.000      0      0  0.000  0.002  0.000  0.000  0.000  0.000  1.000   0.00   0.00   0.00      0      0    191.5   0.00   0.00   0.65    3.36    3.43    2.30    0.90    0.65    0.00    0.00    0.00    0.00      0      0      0       0       0 16.45
 1982 109   109    53   13.0      3   2.90   1518   1865      0   1176   3383   3383      0    0.0  0.000      0      0  0.277  0.519  0.000  0.000  0.000  0.000  1.000   0.00   0.00   0.00      0      0    190.8   0.00   0.00   0.66    3.47    3.58    2.46    0.98    0.73    0.00    0.00    0.00    0.00      0      0      0       0       0 14.50
 1982 110   110    54   13.0      3   2.94   1537   1885      0   1213   3423   3423      0    0.0  0.000      0      0  0.592  0.729  0.000  0.000  0.000  0.000  1.000   0.00   0.00   0.00      0      0    191.0   0.00   0.00   0.67    3.49    3.64    2.54    1.03    0.78    0.01    0.00    0.00    0.00      0      0      0       0       0 17.00
 1982 111   111    55   13.0      3   2.91   1549   1894      0   1232   3443   3443      0    0.0  0.000      0      0  0.735  0.824  0.000  0.000  0.000  0.000  1.000   0.00   0.00   0.00      0      0    188.0   0.00   0.00   0.67    3.48    3.66    2.59    1.06    0.82    0.01    0.00    0.00    0.00      0      0      0       0       0 16.70
 1982 112   112    56   14.0      3   2.91   1557   1901      0   1244   3458   3458      0    0.0  0.000      0      0  0.779  0.853  0.000  0.000  0.000  0.000  1.000   0.00   0.00   0.00      0      0    187.2   0.00   0.00   0.68    3.47    3.67    2.61    1.09    0.84    0.01    0.00    0.00    0.00      0      0      0       0       0 16.75
 1982 113   113    57   14.0      3   2.91   1571   1919      0   1266   3490   3490      0    0.0  0.000      0      0  0.488  0.659  0.000  0.000  0.000  0.000  1.000   0.00   0.00   0.00      0      0    185.3   0.00   0.00   0.69    3.45    3.67    2.65    1.14    0.89    0.01    0.00    0.00    0.00      0      0      0       0       0 15.35
 1982 114   114    58   14.0      3   2.88   1583   1946      0   1289   3529   3530      0    0.0  0.000      0      0  0.399  0.600  0.000  0.000  0.000  0.000  1.000   0.00   0.00   0.00      0      0    181.7   0.00   0.00   0.69    3.43    3.67    2.69    1.19    0.95    0.01    0.00    0.00    0.00      0      0      0       0       0 10.05
 1982 115   115    59   14.0      3   2.87   1595   1965      0   1309   3560   3560      0    0.0  0.000      1      0  0.480  0.654  0.000  0.000  0.000  0.000  1.000   0.00   0.00   0.00      0      1    179.8   0.00   0.00   0.70    3.55    3.68    2.70    1.22    0.99    0.02    0.00    0.00    0.00      0      0      0       0       0 13.15
 1982 116   116    60   15.0      3   2.98   1643   2107      0   1338   3750   3756      0    0.0  0.000      6      0  0.000  0.000  0.000  0.000  0.000  0.000  1.000   0.00   0.00   0.00      0      6    181.3   0.00   0.00   0.70    3.63    3.76    2.76    1.24    1.01    0.02    0.00    0.00    0.00      0      0      0       0       0 14.50
 1982 117   117    61   15.0      3   3.06   1706   2375      0   1392   4080   4107      0    0.0  0.000     26      0  0.000  0.000  0.000  0.000  0.000  0.000  1.000   0.00   0.00   0.01      0     26    179.4   0.00   0.00   0.71    3.78    3.91    2.86    1.29    1.06    0.02    0.00    0.00    0.00      0      0      0       0       0 14.50
 1982 118   118    62   15.0      3   3.13   1764   2641      0   1443   4405   4458      0    0.0  0.000     52      0  0.000  0.000  0.000  0.000  0.000  0.000  1.000   0.00   0.00   0.01      0     52    177.2   0.00   0.00   0.71    3.92    4.00    2.96    1.33    1.10    0.02    0.00    0.00    0.00      0      0      0       0       0 13.10
 1982 119   119    63   15.0      3   3.18   1814   2869      0   1483   4683   4759      0    0.0  0.000     76      0  0.000  0.000  0.000  0.000  0.000  0.000  1.000   0.00   0.00   0.02      0     76    175.5   0.00   0.00   0.72    4.00    4.00    3.04    1.36    1.13    0.02    0.00    0.00    0.00      0      0      0       0       0 12.80
 1982 120   120    64   16.0      3   3.24   1863   3116      0   1525   4979   5091      0    0.0  0.000    112      0  0.000  0.000  0.000  0.000  0.000  0.000  1.000   0.00   0.00   0.02      0    112    173.7   0.00   0.00   0.73    4.00    4.00    3.12    1.40    1.16    0.03    0.00    0.00    0.00      0      0      0       0       0 13.15
 1982 121   121    65   16.0      3   3.25   1891   3334      0   1556   5225   5367      0    0.0  0.000    142      0  0.000  0.330  0.000  0.000  0.000  0.000  1.000   0.00   0.00   0.03      0    142    172.1   0.00   0.00   0.73    4.00    4.00    3.19    1.43    1.20    0.03    0.00    0.00    0.00      0      0      0       0       0 13.15
 1982 122   122    66   16.0      3   3.18   1903   3372      0   1593   5276   5420      0    0.0  0.000    145      0  0.543  0.696  0.000  0.000  0.000  0.000  1.000   0.00   0.00   0.03      0    145    167.2   0.00   0.00   0.74    4.00    4.00    3.27    1.49    1.24    0.03    0.00    0.00    0.00      0      0      0       0       0 13.40
 1982 123   123    67   16.0      3   3.07   1912   3392      0   1614   5304   5450      0    0.0  0.000    145      0  0.676  0.785  0.000  0.000  0.000  0.000  1.000   0.00   0.00   0.03      0    145    160.5   0.00   0.00   0.74    3.98    4.00    3.31    1.53    1.27    0.03    0.00    0.00    0.00      0      0      0       0       0 13.95
 1982 124   124    68   16.0      3   2.91   1917   3405      0   1625   5322   5468      0    0.0  0.000    146      0  0.747  0.832  0.000  0.000  0.000  0.000  1.000   0.00   0.00   0.03      0    146    152.0   0.00   0.00   0.75    3.96    4.00    3.33    1.55    1.29    0.04    0.00    0.00    0.00      0      0      0       0       0 12.85
 1982 125   125    69   16.0      3   2.77   1921   3414      0   1632   5336   5482      0    0.0  0.000    146      0  0.777  0.852  0.000  0.000  0.000  0.000  1.000   0.00   0.00   0.03      0    146    144.4   0.00   0.00   0.75    3.94    3.99    3.34    1.58    1.30    0.04    0.00    0.00    0.00      0      0      0       0       0 13.35
 1982 126   126    70   16.0      3   2.58   1924   3426      0   1638   5349   5496      0    0.0  0.000    146      0  0.760  0.840  0.000  0.000  0.000  0.000  1.000   0.00   0.00   0.03      0    146    133.9   0.00   0.00   0.75    3.92    3.98    3.34    1.60    1.33    0.04    0.00    0.00    0.00      0      0      0       0       0 12.00
 1982 127   127    71   16.0      3   2.43   1925   3435      0   1642   5360   5507      0    0.0  0.000    147      0  0.786  0.858  0.000  0.000  0.000  0.000  1.000   0.00   0.00   0.03      0    147    126.0   0.00   0.00   0.76    3.90    3.96    3.34    1.62    1.34    0.05    0.00    0.00    0.00      0      0      0       0       0 12.30
 1982 128   128    72   16.0      3   2.21   1925   3446      0   1645   5371   5518      0    0.0  0.000    147      0  0.765  0.844  0.000  0.000  0.000  0.000  1.000   0.00   0.00   0.03      0    147    114.8   0.00   0.00   0.76    3.96    3.94    3.33    1.63    1.35    0.05    0.00    0.00    0.00      0      0      0       0       0 15.60
 1982 129   129    73   16.0      4   2.03   1925   3456      0   1647   5381   5528      0    0.0  0.000    147      0  0.790  0.860  0.000  0.000  0.000  0.000  1.000   0.00   0.00   0.03      0    147    105.3   0.00   0.00   0.77    3.99    3.92    3.31    1.65    1.36    0.05    0.00    0.00    0.00      0      0      0       0       0 14.20
 1982 130   130    74   16.0      4   1.92   1925   3464      0   1647   5389   5536      0    0.0  0.000    147      0  0.803  0.869  0.000  0.000  0.000  0.000  1.000   0.00   0.00   0.03      0    147    100.0   0.00   0.00   0.77    3.99    3.90    3.29    1.66    1.37    0.05    0.00    0.00    0.00      0      0      0       0       0 13.35
 1982 131   131    75   16.0      4   1.82   1925   3470      0   1645   5395   5542      0    0.0  0.000    147      0  0.826  0.885  0.000  0.000  0.000  0.000  1.000   0.00   0.00   0.03      0    147     94.6   0.00   0.00   0.77    3.97    3.88    3.28    1.67    1.38    0.06    0.00    0.00    0.00      0      0      0       0       0 12.55
 1982 132   132    76   16.0      4   1.71   1925   3474      0   1641   5400   5547      0    0.0  0.000    147      0  0.848  0.899  0.000  0.000  0.000  0.000  1.000   0.00   0.00   0.03      0    147     88.7   0.00   0.00   0.78    3.95    3.86    3.26    1.67    1.38    0.06    0.00    0.00    0.00      0      0      0       0       0 14.20
 1982 133   133    77   16.0      4   1.58   1925   3478      0   1637   5403   5551      0    0.0  0.000    148      0  0.859  0.907  0.000  0.000  0.000  0.000  1.000   0.00   0.00   0.03      0    148     82.1   0.00   0.00   0.78    3.93    3.84    3.24    1.67    1.39    0.06    0.00    0.00    0.00      0      0      0       0       0 13.95
 1982 134   134    78   16.0      4   1.46   1925   3481      0   1632   5406   5554      0    0.0  0.000    148      0  0.879  0.920  0.000  0.000  0.000  0.000  1.000   0.00   0.00   0.03      0    148     76.0   0.00   0.00   0.78    3.91    3.82    3.22    1.67    1.39    0.06    0.00    0.00    0.00      0      0      0       0       0 13.95
 1982 135   135    79   16.0      4   1.35   1925   3484      0   1626   5409   5557      0    0.0  0.000    148      0  0.874  0.917  0.000  0.000  0.000  0.000  1.000   0.00   0.00   0.03      0    148     70.1   0.00   0.00   0.79    3.89    3.80    3.21    1.67    1.38    0.06    0.00    0.00    0.00      0      0      0       0       0 15.90
 1982 136   136    80   16.0      4   1.24   1925   3487      0   1621   5412   5559      0    0.0  0.000    148      0  0.873  0.916  0.000  0.000  0.000  0.000  1.000   0.00   0.00   0.03      0    148     64.7   0.00   0.00   0.79    3.87    3.78    3.19    1.66    1.38    0.07    0.00    0.00    0.00      0      0      0       0       0 16.45
 1982 137   137    81   16.0      4   1.15   1925   3489      0   1615   5414   5562      0    0.0  0.000    148      0  0.874  0.917  0.000  0.000  0.000  0.000  1.000   0.00   0.00   0.03      0    148     59.6   0.00   0.00   0.79    3.85    3.76    3.17    1.66    1.38    0.07    0.00    0.00    0.00      0      0      0       0       0 16.20
 1982 138   138    82   16.0      4   1.07   1925   3492      0   1609   5417   5564      0    0.0  0.000    148      0  0.867  0.912  0.000  0.000  0.000  0.000  1.000   0.00   0.00   0.03      0    148     55.4   0.00   0.00   0.80    3.83    3.74    3.16    1.66    1.38    0.07    0.00    0.00    0.00      0      0      0       0       0 15.90
 1982 139   139    83   16.0      4   1.07   1925   3494      0   1604   5420   5567      0    0.0  0.000    148      0  0.873  0.916  0.000  0.000  0.000  0.000  1.000   0.00   0.00   0.03      0    148     55.4   0.00   0.00   0.80    3.81    3.72    3.14    1.65    1.38    0.07    0.00    0.00    0.00      0      0      0       0       0 15.65
 1982 140   140    84   16.0      5   1.07   1906   3425     55   1596   5330   5533   2002    2.8  0.010    203      6  0.880  0.920  0.000  0.000  0.000  0.000  1.000   0.00  27.20   0.04      0    203     56.0   0.00   0.00   0.80    3.81    3.72    3.14    1.65    1.38    0.07    0.00    0.00    0.00      0      0      0       0       0 15.90
 1982 141   141    85   16.0      5   1.07   1887   3356    108   1588   5243   5499   2002    5.4  0.020    256      6  0.889  0.926  0.000  0.000  0.000  0.000  1.000   0.00  42.34   0.05      0    256     56.6   0.00   0.00   0.80    3.81    3.72    3.14    1.65    1.38    0.07    0.00    0.00    0.00      0      0      0       0       0 16.15
 1982 142   142    86   16.0      5   1.07   1868   3289    161   1580   5157   5466   2002    8.1  0.029    309      6  0.866  0.911  0.000  0.000  0.000  0.000  1.000   0.00  52.19   0.06      0    309     57.1   0.00   0.00   0.80    3.81    3.72    3.14    1.65    1.38    0.07    0.00    0.00    0.00      0      0      0       0       0 16.75
 1982 143   143    87   16.0      5   1.07   1849   3223    249   1572   5072   5469   2002   12.4  0.045    396      6  0.275  0.517  0.000  0.000  0.000  0.000  1.000   0.00  62.75   0.07      0    396     57.7   0.00   0.00   0.80    3.81    3.72    3.14    1.65    1.38    0.07    0.00    0.00    0.00      0      0      0       0       0 18.65
 1982 144   144    88   16.0      5   1.07   1849   3259    348   1564   5108   5604   2002   17.4  0.062    496      6  0.000  0.000  0.000  0.000  0.000  0.000  1.000   0.00  70.23   0.09      0    496     57.7   0.00   0.00   0.80    3.81    3.72    3.14    1.65    1.38    0.07    0.00    0.00    0.00      0      0      0       0       0 17.85
 1982 145   145    89   16.0      5   1.07   1849   3296    448   1557   5145   5741   2002   22.4  0.078    596      6  0.000  0.000  0.000  0.000  0.000  0.000  1.000   0.00  75.21   0.10      0    596     57.7   0.00   0.00   0.80    3.81    3.72    3.14    1.65    1.38    0.07    0.00    0.00    0.00      0      0      0       0       0 18.40
 1982 146   146    90   16.0      5   1.07   1849   3291    548   1549   5140   5835   2002   27.4  0.094    695      6  0.000  0.000  0.000  0.000  0.000  0.000  1.000   0.00  78.76   0.12      0    695     57.7   0.00   0.00   0.80    3.81    3.72    3.14    1.65    1.38    0.07    0.00    0.00    0.00      0      0      0       0       0 18.15
 1982 147   147    91   16.0      5   1.07   1849   3303    647   1541   5153   5947   2002   32.3  0.109    795      6  0.000  0.000  0.000  0.000  0.000  0.000  1.000   0.00  81.42   0.13      0    795     57.7   0.00   0.00   0.80    3.81    3.72    3.14    1.65    1.38    0.07    0.00    0.00    0.00      0      0      0       0       0 18.65
 1982 148   148    92   16.0      5   1.07   1849   3341    747   1533   5190   6084   2002   37.3  0.123    894      6  0.000  0.000  0.000  0.000  0.000  0.000  1.000   0.00  83.49   0.15      0    894     57.7   0.00   0.00   0.80    3.81    3.72    3.14    1.65    1.38    0.07    0.00    0.00    0.00      0      0      0       0       0 18.95
 1982 149   149    93   16.0      5   1.07   1849   3363    846   1526   5213   6207   2002   42.3  0.136    994      6  0.000  0.000  0.000  0.000  0.000  0.000  1.000   0.00  85.14   0.16      0    994     57.7   0.00   0.00   0.80    3.81    3.72    3.14    1.65    1.38    0.07    0.00    0.00    0.00      0      0      0       0       0 20.27
 1982 150   150    94   16.0      5   1.07   1831   3296    941   1518   5127   6216   2002   47.0  0.151   1089      6  0.000  0.000  0.000  0.000  0.000  0.000  1.000   0.00  86.44   0.18      0   1089     58.3   0.00   0.00   0.80    3.81    3.72    3.14    1.65    1.38    0.07    0.00    0.00    0.00      0      0      0       0       0 19.50
 1982 151   151    95   16.0      5   1.07   1831   3250   1041   1510   5080   6269   2002   52.0  0.166   1189      6  0.000  0.000  0.000  0.000  0.000  0.000  1.000   0.00  87.58   0.19      0   1189     58.3   0.00   0.00   0.80    3.81    3.72    3.14    1.65    1.38    0.07    0.00    0.00    0.00      0      0      0       0       0 17.30
 1982 152   152    96   16.0      5   1.07   1831   3273   1141   1503   5104   6392   2002   57.0  0.178   1288      6  0.000  0.000  0.000  0.000  0.000  0.000  1.000   0.00  88.54   0.20      0   1288     58.2   0.00   0.00   0.80    3.81    3.72    3.14    1.65    1.38    0.07    0.00    0.00    0.00      0      0      0       0       0 18.10
 1982 153   153    97   16.0      5   1.07   1831   3315   1240   1495   5146   6534   2002   62.0  0.190   1388      6  0.000  0.000  0.000  0.000  0.000  0.000  1.000   0.00  89.36   0.21      0   1388     58.2   0.00   0.00   0.80    3.81    3.72    3.14    1.65    1.38    0.07    0.00    0.00    0.00      0      0      0       0       0 18.65
 1982 154   154    98   16.0      5   1.06   1831   3311   1340   1488   5141   6629   2002   66.9  0.202   1487      6  0.000  0.000  0.000  0.000  0.000  0.000  1.000   0.00  90.07   0.22      0   1487     58.1   0.00   0.00   0.80    3.81    3.72    3.14    1.65    1.38    0.07    0.00    0.00    0.00      0      0      0       0       0 20.05
 1982 155   155    99   16.0      5   1.06   1831   3328   1439   1481   5159   6746   2002   71.9  0.213   1587      6  0.000  0.000  0.000  0.000  0.000  0.000  1.000   0.00  90.69   0.24      0   1587     58.0   0.00   0.00   0.80    3.81    3.72    3.14    1.65    1.38    0.07    0.00    0.00    0.00      0      0      0       0       0 19.75
 1982 156   156   100   16.0      5   1.06   1831   3347   1539   1473   5178   6865   2002   76.9  0.224   1687      6  0.000  0.000  0.000  0.000  0.000  0.000  1.000   0.00  91.24   0.25      0   1687     57.7   0.00   0.00   0.80    3.81    3.72    3.14    1.65    1.38    0.07    0.00    0.00    0.00      0      0      0       0       0 18.10
 1982 157   157   101   16.0      5   1.05   1831   3363   1638   1466   5193   6979   2002   81.9  0.235   1786      6  0.000  0.000  0.000  0.000  0.000  0.000  1.000   0.00  91.73   0.26      0   1786     57.1   0.00   0.00   0.80    3.81    3.72    3.14    1.65    1.38    0.07    0.00    0.00    0.00      0      0      0       0       0 18.32
 1982 158   158   102   16.0      5   1.03   1831   3369   1738   1458   5199   7085   2002   86.8  0.245   1886      6  0.000  0.000  0.000  0.000  0.000  0.000  1.000   0.00  92.17   0.27      0   1886     56.1   0.00   0.00   0.80    3.81    3.72    3.14    1.65    1.38    0.07    0.00    0.00    0.00      0      0      0       0       0 18.10
 1982 159   159   103   16.0      5   0.99   1831   3363   1838   1451   5194   7179   2002   91.8  0.256   1985      6  0.000  0.000  0.000  0.000  0.000  0.000  1.000   0.00  92.56   0.28      0   1985     54.3   0.00   0.00   0.80    3.81    3.72    3.14    1.65    1.38    0.07    0.00    0.00    0.00      0      0      0       0       0 17.77
 1982 160   160   104   16.0      5   0.95   1831   3343   1937   1444   5174   7259   2002   96.8  0.267   2085      6  0.000  0.000  0.000  0.000  0.000  0.000  1.000   0.00  92.92   0.29      0   2085     51.7   0.00   0.00   0.80    3.81    3.72    3.14    1.65    1.38    0.07    0.00    0.00    0.00      0      0      0       0       0 18.87
 1982 161   161   105   16.0      5   0.93   1831   3318   2037   1437   5149   7334   2002  101.8  0.278   2184      6  0.000  0.000  0.000  0.000  0.000  0.000  1.000   0.00  93.24   0.30      0   2184     50.8   0.00   0.00   0.80    3.81    3.72    3.14    1.65    1.38    0.07    0.00    0.00    0.00      0      0      0       0       0 19.72
 1982 162   162   106   16.0      5   0.93   1831   3270   2136   1429   5100   7384   2002  106.7  0.289   2284      6  0.000  0.223  0.000  0.000  0.000  0.000  1.000   0.00  93.53   0.31      0   2284     50.8   0.00   0.00   0.80    3.81    3.72    3.14    1.65    1.38    0.07    0.00    0.00    0.00      0      0      0       0       0 19.10
 1982 163   163   107   16.0      5   0.93   1831   3206   2236   1422   5037   7420   2002  111.7  0.301   2384      6  0.000  0.108  0.000  0.000  0.000  0.000  1.000   0.00  93.80   0.32      0   2384     50.7   0.00   0.00   0.80    3.81    3.72    3.14    1.65    1.38    0.07    0.00    0.00    0.00      0      0      0       0       0 17.55
 1982 164   164   108   16.0      5   0.93   1831   3155   2335   1415   4985   7468   2002  116.7  0.313   2483      6  0.000  0.000  0.000  0.000  0.000  0.000  1.000   0.00  94.05   0.33      0   2483     50.5   0.00   0.00   0.80    3.81    3.72    3.14    1.65    1.38    0.07    0.00    0.00    0.00      0      0      0       0       0 19.20
 1982 165   165   109   16.0      5   0.92   1831   3099   2435   1408   4930   7513   2002  121.7  0.324   2583      6  0.000  0.000  0.000  0.000  0.000  0.000  1.000   0.00  94.28   0.34      0   2583     50.2   0.00   0.00   0.80    3.81    3.72    3.14    1.65    1.38    0.07    0.00    0.00    0.00      0      0      0       0       0 17.80
 1982 166   166   110   16.0      5   0.91   1830   3038   2535   1401   4868   7550   2002  126.6  0.336   2682      6  0.000  0.000  0.000  0.000  0.000  0.000  1.000   0.00  94.49   0.36      0   2682     49.7   0.00   0.00   0.80    3.81    3.72    3.14    1.65    1.38    0.07    0.00    0.00    0.00      0      0      0       0       0 19.25
 1982 167   167   111   16.0      5   0.89   1822   2977   2634   1394   4799   7580   2002  131.6  0.347   2782      6  0.000  0.000  0.000  0.000  0.000  0.000  1.000   0.00  94.69   0.37      0   2782     48.8   0.00   0.00   0.80    3.81    3.72    3.14    1.65    1.38    0.07    0.00    0.00    0.00      0      0      0       0       0 20.05
 1982 168   168   112   16.0      5   0.86   1804   2917   2706   1387   4721   7574   2002  135.2  0.357   2853      6  0.000  0.000  0.000  0.000  0.000  0.000  1.000   0.00  94.82   0.38      0   2853     47.8   0.00   0.00   0.80    3.81    3.72    3.14    1.65    1.38    0.07    0.00    0.00    0.00      0      0      0       0       0 18.10
 1982 169   169   113   16.0      5   0.83   1786   2859   2790   1380   4644   7582   2002  139.4  0.368   2938      6  0.000  0.000  0.000  0.000  0.000  0.000  1.000   0.00  94.97   0.39      0   2938     46.3   0.00   0.00   0.80    3.81    3.72    3.14    1.65    1.38    0.07    0.00    0.00    0.00      0      0      0       0       0 16.45
 1982 170   170   114   16.0      5   0.79   1768   2802   2879   1373   4569   7596   2002  143.8  0.379   3026      6  0.000  0.000  0.000  0.000  0.000  0.000  1.000   0.00  95.12   0.40      0   3026     44.4   0.00   0.00   0.80    3.81    3.72    3.14    1.65    1.38    0.07    0.00    0.00    0.00      0      0      0       0       0 18.65
 1982 171   171   115   16.0      5   0.74   1750   2746   2963   1366   4496   7606   2002  148.0  0.390   3110      6  0.000  0.000  0.000  0.000  0.000  0.000  1.000   0.00  95.25   0.41      0   3110     42.5   0.00   0.00   0.80    3.81    3.72    3.14    1.65    1.38    0.07    0.00    0.00    0.00      0      0      0       0       0 19.50
 1982 172   172   116   16.0      5   0.71   1750   2757   2998   1360   4507   7652   2002  149.8  0.392   3145      6  0.000  0.000  0.000  0.000  0.000  0.000  1.000   0.00  95.30   0.41      0   3145     40.8   0.00   0.00   0.80    3.81    3.72    3.14    1.65    1.38    0.07    0.00    0.00    0.00      0      0      0       0       0 18.40
 1982 173   173   117   16.0      5   0.69   1750   2757   3027   1353   4507   7682   2002  151.3  0.394   3175      6  0.000  0.000  0.000  0.000  0.000  0.000  1.000   0.00  95.35   0.41      0   3175     39.4   0.00   0.00   0.80    3.81    3.72    3.14    1.65    1.38    0.07    0.00    0.00    0.00      0      0      0       0       0 17.80
 1982 174   174   118   16.0      5   0.67   1750   2757   3050   1346   4507   7705   2002  152.4  0.396   3198      6  0.000  0.000  0.000  0.000  0.000  0.000  1.000   0.00  95.38   0.42      0   3198     38.1   0.00   0.00   0.80    3.81    3.72    3.14    1.65    1.38    0.07    0.00    0.00    0.00      0      0      0       0       0 16.75
 1982 175   175   119   16.0      6   0.64   1750   2757   3074   1339   4507   7729   2002  153.6  0.398   3222      6  0.000  0.000  0.000  0.000  0.000  0.000  1.000   0.00  95.42   0.42      0   3222     36.4   0.00   0.00   0.80    3.81    3.72    3.14    1.65    1.38    0.07    0.00    0.00    0.00      0      0      0       0       0 18.40
 1982 176   176   120   16.0      6   0.59   1750   2757   3097   1333   4507   7752   2002  154.7  0.400   3245      6  0.000  0.000  0.000  0.000  0.000  0.000  1.000   0.00  95.45   0.42      0   3245     33.6   0.00   0.00   0.80    3.81    3.72    3.14    1.65    1.38    0.07    0.00    0.00    0.00      0      0      0       0       0 17.80
