*WATER BALANCE OUTPUT FILE

*DSSAT Cropping System Model Ver. 4.7.5.042 -develop  NOV 25, 2021 10:20:41

!     WATER BALANCE PARAMETERS
!     ========================                 --mm--

!     Soil H20 (start) on Year/day 1982/001    213.60
!     Soil H20 (final) on Year/day 1982/176    242.91
!     Effective Irrigation                       0.00
!     Precipitation                            898.50
!     Water added with new mulch                 0.00
!     Drainage                                 418.04
!     Tiledrain flow                             0.00
!     Runoff                                    57.50
!     Mulch evaporation                          0.00
!     Soil Evaporation                         210.86
!     Transpiration                            182.81
!     Potential ET                             668.19

!     Initial mulch water content                0.00
!     Final mulch water content                  0.00

!     Final Balance                            -0.020

