*WATER BALANCE OUTPUT FILE

*DSSAT Cropping System Model Ver. 4.7.5.039 -develop  NOV 04, 2021 14:05:35

!     WATER BALANCE PARAMETERS
!     ========================                 --mm--

!     Soil H20 (start) on Year/day 2020/001    324.90
!     Soil H20 (final) on Year/day 2020/300    335.38
!     Effective Irrigation                       0.00
!     Precipitation                            589.80
!     Water added with new mulch                 0.00
!     Drainage                                   3.67
!     Tiledrain flow                             0.00
!     Runoff                                     4.57
!     Mulch evaporation                          0.00
!     Soil Evaporation                         257.32
!     Transpiration                            309.65
!     Potential ET                             911.60

!     Initial snow accumulation                  0.00
!     Final snow accumulation                    4.10

!     Initial mulch water content                0.00
!     Final mulch water content                  0.00

!     Final Balance                             0.011


*DSSAT Cropping System Model Ver. 4.7.5.039 -develop  NOV 04, 2021 14:05:42

!     WATER BALANCE PARAMETERS
!     ========================                 --mm--

!     Soil H20 (start) on Year/day 2020/001    324.90
!     Soil H20 (final) on Year/day 2020/300    335.38
!     Effective Irrigation                       0.00
!     Precipitation                            589.80
!     Water added with new mulch                 0.00
!     Drainage                                   3.67
!     Tiledrain flow                             0.00
!     Runoff                                     4.57
!     Mulch evaporation                          0.00
!     Soil Evaporation                         257.32
!     Transpiration                            309.65
!     Potential ET                             911.60

!     Initial snow accumulation                  0.00
!     Final snow accumulation                    4.10

!     Initial mulch water content                0.00
!     Final mulch water content                  0.00

!     Final Balance                             0.011


*DSSAT Cropping System Model Ver. 4.7.5.039 -develop  NOV 04, 2021 14:05:43

!     WATER BALANCE PARAMETERS
!     ========================                 --mm--

!     Soil H20 (start) on Year/day 2020/001    324.90
!     Soil H20 (final) on Year/day 2020/300    320.74
!     Effective Irrigation                       0.00
!     Precipitation                            554.10
!     Water added with new mulch                 0.00
!     Drainage                                   3.67
!     Tiledrain flow                             0.00
!     Runoff                                     5.15
!     Mulch evaporation                          0.00
!     Soil Evaporation                         262.16
!     Transpiration                            281.69
!     Potential ET                             915.67

!     Initial snow accumulation                  0.00
!     Final snow accumulation                    5.60

!     Initial mulch water content                0.00
!     Final mulch water content                  0.00

!     Final Balance                            -0.011


*DSSAT Cropping System Model Ver. 4.7.5.039 -develop  NOV 04, 2021 14:06:08

!     WATER BALANCE PARAMETERS
!     ========================                 --mm--

!     Soil H20 (start) on Year/day 2020/001    324.90
!     Soil H20 (final) on Year/day 2020/300    335.38
!     Effective Irrigation                       0.00
!     Precipitation                            589.80
!     Water added with new mulch                 0.00
!     Drainage                                   3.67
!     Tiledrain flow                             0.00
!     Runoff                                     4.57
!     Mulch evaporation                          0.00
!     Soil Evaporation                         257.32
!     Transpiration                            309.65
!     Potential ET                             911.60

!     Initial snow accumulation                  0.00
!     Final snow accumulation                    4.10

!     Initial mulch water content                0.00
!     Final mulch water content                  0.00

!     Final Balance                             0.011


*DSSAT Cropping System Model Ver. 4.7.5.039 -develop  NOV 04, 2021 14:06:09

!     WATER BALANCE PARAMETERS
!     ========================                 --mm--

!     Soil H20 (start) on Year/day 2020/001    324.90
!     Soil H20 (final) on Year/day 2020/300    320.74
!     Effective Irrigation                       0.00
!     Precipitation                            554.10
!     Water added with new mulch                 0.00
!     Drainage                                   3.67
!     Tiledrain flow                             0.00
!     Runoff                                     5.15
!     Mulch evaporation                          0.00
!     Soil Evaporation                         262.16
!     Transpiration                            281.69
!     Potential ET                             915.67

!     Initial snow accumulation                  0.00
!     Final snow accumulation                    5.60

!     Initial mulch water content                0.00
!     Final mulch water content                  0.00

!     Final Balance                            -0.011


*DSSAT Cropping System Model Ver. 4.7.5.039 -develop  NOV 04, 2021 14:06:17

!     WATER BALANCE PARAMETERS
!     ========================                 --mm--

!     Soil H20 (start) on Year/day 2020/001    324.90
!     Soil H20 (final) on Year/day 2020/300    335.38
!     Effective Irrigation                       0.00
!     Precipitation                            589.80
!     Water added with new mulch                 0.00
!     Drainage                                   3.67
!     Tiledrain flow                             0.00
!     Runoff                                     4.57
!     Mulch evaporation                          0.00
!     Soil Evaporation                         257.32
!     Transpiration                            309.65
!     Potential ET                             911.60

!     Initial snow accumulation                  0.00
!     Final snow accumulation                    4.10

!     Initial mulch water content                0.00
!     Final mulch water content                  0.00

!     Final Balance                             0.011


*DSSAT Cropping System Model Ver. 4.7.5.039 -develop  NOV 04, 2021 14:06:30

!     WATER BALANCE PARAMETERS
!     ========================                 --mm--

!     Soil H20 (start) on Year/day 2020/001    324.90
!     Soil H20 (final) on Year/day 2020/300    320.74
!     Effective Irrigation                       0.00
!     Precipitation                            554.10
!     Water added with new mulch                 0.00
!     Drainage                                   3.67
!     Tiledrain flow                             0.00
!     Runoff                                     5.15
!     Mulch evaporation                          0.00
!     Soil Evaporation                         262.16
!     Transpiration                            281.69
!     Potential ET                             915.67

!     Initial snow accumulation                  0.00
!     Final snow accumulation                    5.60

!     Initial mulch water content                0.00
!     Final mulch water content                  0.00

!     Final Balance                            -0.011

