*WARNING DETAIL FILE

******************************************************************************

*DSSAT Cropping System Model Ver. 4.7.5.042 -develop  NOV 25, 2021 10:20:41
