*WARNING DETAIL FILE

******************************************************************************

*DSSAT Cropping System Model Ver. 4.7.5.039 -develop  NOV 04, 2021 14:05:35

******************************************************************************

*DSSAT Cropping System Model Ver. 4.7.5.039 -develop  NOV 04, 2021 14:05:42

******************************************************************************

*DSSAT Cropping System Model Ver. 4.7.5.039 -develop  NOV 04, 2021 14:05:43

******************************************************************************

*DSSAT Cropping System Model Ver. 4.7.5.039 -develop  NOV 04, 2021 14:06:08

******************************************************************************

*DSSAT Cropping System Model Ver. 4.7.5.039 -develop  NOV 04, 2021 14:06:09

******************************************************************************

*DSSAT Cropping System Model Ver. 4.7.5.039 -develop  NOV 04, 2021 14:06:17

******************************************************************************

*DSSAT Cropping System Model Ver. 4.7.5.039 -develop  NOV 04, 2021 14:06:30
